<?xml version="1.0" encoding="UTF-8"?>

<!-- generated on 11/27/20 10:08:36 by Eclipse SUMO duarouter Version 1.6.0
<configuration xmlns:xsi="http://www.w3.org/2001/XMLSchema-instance" xsi:noNamespaceSchemaLocation="http://sumo.dlr.de/xsd/duarouterConfiguration.xsd">

    <input>
        <net-file value="Quebec_data\\osm.net.xml"/>
        <additional-files value="Quebec_data\\osm.add.xml"/>
        <route-files value="Quebec_data\\normal.passenger.trips.xml"/>
    </input>

    <output>
        <output-file value="Quebec_data\\normal.passenger.trips.xml.tmp"/>
        <write-trips value="true"/>
    </output>

    <time>
        <begin value="1800.0"/>
        <end value="82400.0"/>
    </time>

    <report>
        <no-warnings value="true"/>
        <ignore-errors value="true"/>
        <no-step-log value="true"/>
    </report>

</configuration>
-->

<routes xmlns:xsi="http://www.w3.org/2001/XMLSchema-instance" xsi:noNamespaceSchemaLocation="http://sumo.dlr.de/xsd/routes_file.xsd">
    <trip id="010" depart="1800.00" from="25420497#2" to="-26320254#0"/>
    <trip id="011" depart="1802.00" from="-25482106#3" to="211660706#3"/>
    <trip id="012" depart="1804.00" from="16232915#3" to="-26513319#13"/>
    <trip id="013" depart="1806.00" from="156799724#8" to="28010560#0"/>
    <trip id="014" depart="1808.00" from="-25482096" to="-26320292"/>
    <trip id="015" depart="1810.00" from="-17055718#4" to="-26662450#3"/>
    <trip id="016" depart="1812.00" from="-29019797#2" to="657694259"/>
    <trip id="017" depart="1814.00" from="-26662395#7" to="25775335#3"/>
    <trip id="018" depart="1816.00" from="-25482098" to="-159767072"/>
    <trip id="019" depart="1818.00" from="27006738#4" to="25482088"/>
    <trip id="0111" depart="1822.00" from="-17095380#1" to="26662462#3"/>
    <trip id="0112" depart="1824.00" from="27719166#3" to="-665595729#1"/>
    <trip id="0113" depart="1826.00" from="-633452341#4" to="-27440572#1"/>
    <trip id="0114" depart="1828.00" from="472541425" to="337192923#1"/>
    <trip id="0115" depart="1830.00" from="-25775336#1" to="26710729#1"/>
    <trip id="0116" depart="1832.00" from="-26427398#2" to="392440879"/>
    <trip id="0117" depart="1834.00" from="-310720097#7" to="25775304#3"/>
    <trip id="0118" depart="1836.00" from="26662450#1" to="156810874#1"/>
    <trip id="0119" depart="1838.00" from="240860999#1" to="29019823#4"/>
    <trip id="0120" depart="1840.00" from="26513308#4" to="24445797#7"/>
    <trip id="0121" depart="1842.00" from="25123910#8" to="17096799#6"/>
    <trip id="0122" depart="1844.00" from="16236580#2" to="25775287#1"/>
    <trip id="0123" depart="1846.00" from="-26662450#0" to="302399308#9"/>
    <trip id="0124" depart="1848.00" from="-28010472#0" to="-26662405#1"/>
    <trip id="0125" depart="1850.00" from="16224377#4" to="25281468#2"/>
    <trip id="0126" depart="1852.00" from="17055718#7" to="28010485#1"/>
    <trip id="0127" depart="1854.00" from="-26513319#9" to="-26427409#0"/>
    <trip id="0128" depart="1856.00" from="25775287#2" to="-28010507#2"/>
    <trip id="0129" depart="1858.00" from="-24411814#10" to="26662444#1"/>
    <trip id="0130" depart="1860.00" from="-26427386#1" to="27719166#3"/>
    <trip id="0131" depart="1862.00" from="-303121078#4" to="24411817#0"/>
    <trip id="0132" depart="1864.00" from="26513277#1" to="157770087#0"/>
    <trip id="0133" depart="1866.00" from="156810838" to="26320269#7"/>
    <trip id="0134" depart="1868.00" from="-351535208" to="27500536#1"/>
    <trip id="0135" depart="1870.00" from="24444089#2" to="24472361#3"/>
    <trip id="0136" depart="1872.00" from="28010526#3" to="351536388"/>
    <trip id="0137" depart="1874.00" from="27440460#1" to="25734057#2"/>
    <trip id="0138" depart="1876.00" from="17461769#0" to="28010583#1"/>
    <trip id="0139" depart="1878.00" from="-26662450#1" to="-239609983"/>
    <trip id="0140" depart="1880.00" from="-28010562#3" to="28010473#0"/>
    <trip id="0141" depart="1882.00" from="25465249#5" to="-16234923#0"/>
    <trip id="0142" depart="1884.00" from="26662399#4" to="25465222#3"/>
    <trip id="0143" depart="1886.00" from="23110710#2" to="-17094990"/>
    <trip id="0144" depart="1888.00" from="-16232121#5" to="-24411814#1"/>
    <trip id="0145" depart="1890.00" from="323729583" to="16230993#2"/>
    <trip id="0146" depart="1892.00" from="-23116043" to="27720394#2"/>
    <trip id="0147" depart="1894.00" from="23111085#9" to="-41424226#7"/>
    <trip id="0148" depart="1896.00" from="156804366#4" to="-26513305#21"/>
    <trip id="0149" depart="1898.00" from="-17097066#2" to="27500514#2"/>
    <trip id="0150" depart="1900.00" from="34612843#0" to="-470186319#1"/>
    <trip id="0151" depart="1902.00" from="-25465213#1" to="-592265791"/>
    <trip id="0153" depart="1906.00" from="-25775278#4" to="-27440559#0"/>
    <trip id="0154" depart="1908.00" from="17096799#1" to="25482111"/>
    <trip id="0156" depart="1912.00" from="-26513284#2" to="-175794804#3"/>
    <trip id="0157" depart="1914.00" from="28010486#0" to="24419289#2"/>
    <trip id="0158" depart="1916.00" from="-27500582" to="-587383103#0"/>
    <trip id="0159" depart="1918.00" from="-25775250#2" to="16244236#1"/>
    <trip id="0160" depart="1920.00" from="-302399308#3" to="25230353#3"/>
    <trip id="0161" depart="1922.00" from="319277813#1" to="27500491#0"/>
    <trip id="0162" depart="1924.00" from="25775259" to="25401639#3"/>
    <trip id="0163" depart="1926.00" from="29043133#0" to="-25775308#0"/>
    <trip id="0164" depart="1928.00" from="471778457#0" to="-25775282#5"/>
    <trip id="0165" depart="1930.00" from="345772681" to="240860995#1"/>
    <trip id="0167" depart="1934.00" from="-25482057#1" to="-29019797#3"/>
    <trip id="0168" depart="1936.00" from="28010508#0" to="-27440573#6"/>
    <trip id="0169" depart="1938.00" from="-240860996#0" to="28010527#1"/>
    <trip id="0170" depart="1940.00" from="-28010469#1" to="25794906"/>
    <trip id="0171" depart="1942.00" from="26710689#1" to="-26662454#2"/>
    <trip id="0172" depart="1944.00" from="17097613#1" to="25482062#1"/>
    <trip id="0173" depart="1946.00" from="-24419307#5" to="29019823#1"/>
    <trip id="0174" depart="1948.00" from="27500559" to="25420497#0"/>
    <trip id="0175" depart="1950.00" from="17007727" to="-26427414#3"/>
    <trip id="0176" depart="1952.00" from="25465210#1" to="41937466#1"/>
    <trip id="0177" depart="1954.00" from="-27500563#0" to="25401640#2"/>
    <trip id="0178" depart="1956.00" from="-26513338#4" to="50113244#1"/>
    <trip id="0179" depart="1958.00" from="25734067#8" to="25420512"/>
    <trip id="0180" depart="1960.00" from="24411832#4" to="-26662431#5"/>
    <trip id="0181" depart="1962.00" from="470247604#2" to="23115994#0"/>
    <trip id="0182" depart="1964.00" from="472616521#0" to="27073472#1"/>
    <trip id="0183" depart="1966.00" from="-24411811#1" to="283037534"/>
    <trip id="0184" depart="1968.00" from="-28010485#0" to="16234894#1"/>
    <trip id="0185" depart="1970.00" from="28010469#0" to="-26320290#2"/>
    <trip id="0186" depart="1972.00" from="26513314#1" to="-28010577#0"/>
    <trip id="0187" depart="1974.00" from="-26710691#0" to="-25734074#0"/>
    <trip id="0188" depart="1976.00" from="41937466#3" to="-351537508#2"/>
    <trip id="0189" depart="1978.00" from="27344455" to="-27440455#2"/>
    <trip id="0190" depart="1980.00" from="50113253#1" to="41937452#10"/>
    <trip id="0191" depart="1982.00" from="-26513344#4" to="28010526#3"/>
    <trip id="0192" depart="1984.00" from="-26320277#1" to="28010566#0"/>
    <trip id="0193" depart="1986.00" from="-28010448#0" to="25366413#11"/>
    <trip id="0194" depart="1988.00" from="25401614#3" to="-27720479#1"/>
    <trip id="0195" depart="1990.00" from="-470509527" to="25281498"/>
    <trip id="0196" depart="1992.00" from="27720394#1" to="-25482081#0"/>
    <trip id="0197" depart="1994.00" from="-27440572#3" to="-23111715#0"/>
    <trip id="0198" depart="1996.00" from="-25420521" to="25734074#1"/>
    <trip id="0199" depart="1998.00" from="50113253#1" to="310720097#6"/>
    <trip id="01100" depart="2000.00" from="24801372#0" to="518028890#2"/>
    <trip id="01101" depart="2002.00" from="-112023779" to="-28010570#5"/>
    <trip id="01102" depart="2004.00" from="-16230993#3" to="25355533#6"/>
    <trip id="01103" depart="2006.00" from="247751386#0" to="-28010521"/>
    <trip id="01104" depart="2008.00" from="-41551160#2" to="-25420504#8"/>
    <trip id="01105" depart="2010.00" from="25465233#3" to="26662444#0"/>
    <trip id="01106" depart="2012.00" from="26320277#1" to="25230359#4"/>
    <trip id="01107" depart="2014.00" from="41937459#2" to="25482106#4"/>
    <trip id="01108" depart="2016.00" from="30793355#2" to="25355533#6"/>
    <trip id="01109" depart="2018.00" from="-26320257#0" to="247208010#2"/>
    <trip id="01110" depart="2020.00" from="351534959#1" to="-247208011#0"/>
    <trip id="01111" depart="2022.00" from="50257921" to="25482083"/>
    <trip id="01112" depart="2024.00" from="25230310#3" to="28010567#3"/>
    <trip id="01113" depart="2026.00" from="-665595729#5" to="-25420541#0"/>
    <trip id="01114" depart="2028.00" from="26320258#0" to="28010498#2"/>
    <trip id="01115" depart="2030.00" from="-586701921#4" to="517326033"/>
    <trip id="01116" depart="2032.00" from="377868532#6" to="27736408#1"/>
    <trip id="01117" depart="2034.00" from="26427414#2" to="-25420525#2"/>
    <trip id="01119" depart="2038.00" from="-25775258#4" to="25775314#1"/>
    <trip id="01120" depart="2040.00" from="29019847#6" to="591743000#2"/>
    <trip id="01121" depart="2042.00" from="24371409" to="25775281#7"/>
    <trip id="01122" depart="2044.00" from="-26662463#0" to="156810744"/>
    <trip id="01123" depart="2046.00" from="26662398#2" to="-25775267#14"/>
    <trip id="01124" depart="2048.00" from="-27500497#2" to="-25734074#11"/>
    <trip id="01125" depart="2050.00" from="778015025#4" to="-27719284#3"/>
    <trip id="01126" depart="2052.00" from="-25775253" to="-157770089#1"/>
    <trip id="01127" depart="2054.00" from="-27440410#2" to="-377868534#1"/>
    <trip id="01128" depart="2056.00" from="-27500561#1" to="-27760798"/>
    <trip id="01129" depart="2058.00" from="-25482057#1" to="24445805#3"/>
    <trip id="01130" depart="2060.00" from="25775267#21" to="27500497#1"/>
    <trip id="01131" depart="2062.00" from="25401628#3" to="-16232121#19"/>
    <trip id="01132" depart="2064.00" from="25465245#2" to="41152980#2"/>
    <trip id="01133" depart="2066.00" from="-26513280#0" to="-25482106#4"/>
    <trip id="01134" depart="2068.00" from="-25775333#3" to="622435348"/>
    <trip id="01135" depart="2070.00" from="25775281#11" to="-25482068#0"/>
    <trip id="01136" depart="2072.00" from="202761370" to="25313533#0"/>
    <trip id="01137" depart="2074.00" from="-25123910#16" to="-25775282#1"/>
    <trip id="01138" depart="2076.00" from="-17007526#1" to="-23110723"/>
    <trip id="01139" depart="2078.00" from="27718574#2" to="27500568#1"/>
    <trip id="01140" depart="2080.00" from="-25123910#14" to="287205595-AddedOnRampEdge"/>
    <trip id="01141" depart="2082.00" from="-25366432#4" to="23111085#0"/>
    <trip id="01142" depart="2084.00" from="156810843#0" to="-28010502#0"/>
    <trip id="01143" depart="2086.00" from="-24411811#16" to="28010449"/>
    <trip id="01144" depart="2088.00" from="26662417#8" to="28010567#7"/>
    <trip id="01145" depart="2090.00" from="25123907#3" to="25734063#3"/>
    <trip id="01146" depart="2092.00" from="472541435" to="377869587#6"/>
    <trip id="01147" depart="2094.00" from="592054826" to="-379316927"/>
    <trip id="01148" depart="2096.00" from="28010508#4" to="17056546#5"/>
    <trip id="01149" depart="2098.00" from="-27760794#0" to="-379316925#7"/>
    <trip id="01150" depart="2100.00" from="-25734067#2" to="-23111479#1"/>
    <trip id="01151" depart="2102.00" from="517972133#0-AddedOnRampEdge" to="38260988#2-AddedOnRampEdge"/>
    <trip id="01152" depart="2104.00" from="-28010477#2" to="27718578#2"/>
    <trip id="01153" depart="2106.00" from="-25734074#7" to="28010570#5"/>
    <trip id="01154" depart="2108.00" from="-26320254#1" to="17096089#3"/>
    <trip id="01155" depart="2110.00" from="-25465248#1" to="476958265"/>
    <trip id="01156" depart="2112.00" from="-28010526#4" to="24411825#3"/>
    <trip id="01157" depart="2114.00" from="-28257906#7" to="17055718#5"/>
    <trip id="01158" depart="2116.00" from="25401629#3" to="-17058489#5"/>
    <trip id="01159" depart="2118.00" from="-28257906#10" to="25465212#1"/>
    <trip id="01160" depart="2120.00" from="34609041#5" to="-241501814#7"/>
    <trip id="01161" depart="2122.00" from="25465205#3" to="-25775267#9"/>
    <trip id="01162" depart="2124.00" from="26662467" to="-23236469#6"/>
    <trip id="01164" depart="2128.00" from="-24801349#2" to="613811827#0-AddedOffRampEdge"/>
    <trip id="01165" depart="2130.00" from="-16233040#7" to="658002700"/>
    <trip id="01166" depart="2132.00" from="-25775299#1" to="23115994#0"/>
    <trip id="01167" depart="2134.00" from="-26513295#1" to="-17097959#6"/>
    <trip id="01168" depart="2136.00" from="-28257906#10" to="26513344#3"/>
    <trip id="01170" depart="2140.00" from="470509531" to="25465248#13"/>
    <trip id="01171" depart="2142.00" from="-23111624#0" to="17094318#5"/>
    <trip id="01172" depart="2144.00" from="33658107#0" to="-26427396#5"/>
    <trip id="01173" depart="2146.00" from="351534955#0" to="591816723"/>
    <trip id="01174" depart="2148.00" from="27500585#2" to="351536227"/>
    <trip id="01175" depart="2150.00" from="471778450#2" to="244847757#1"/>
    <trip id="01176" depart="2152.00" from="23111073#2" to="16236580#5"/>
    <trip id="01177" depart="2154.00" from="38260974-AddedOffRampEdge" to="28010503"/>
    <trip id="01178" depart="2156.00" from="-25775362" to="-25734074#1"/>
    <trip id="01179" depart="2158.00" from="-351973620#3" to="-25775304#2"/>
    <trip id="01180" depart="2160.00" from="-23110836#3" to="-28010447#0"/>
    <trip id="01181" depart="2162.00" from="26320255#1" to="25482072#1"/>
    <trip id="01182" depart="2164.00" from="470186318#0" to="25154427#3"/>
    <trip id="01183" depart="2166.00" from="-25420549#0" to="-351534957#1"/>
    <trip id="01184" depart="2168.00" from="-28010570#2" to="26662459"/>
    <trip id="01185" depart="2170.00" from="27924747#1" to="25775353#0"/>
    <trip id="01186" depart="2172.00" from="26513338#0" to="-25401629#0"/>
    <trip id="01187" depart="2174.00" from="26427394#3" to="27006738#6"/>
    <trip id="01188" depart="2176.00" from="-27440411#2" to="28010491#2"/>
    <trip id="01189" depart="2178.00" from="272969844#2" to="28010529#1"/>
    <trip id="01190" depart="2180.00" from="29043116#0" to="50113244#1"/>
    <trip id="01191" depart="2182.00" from="-26320271#1" to="-156812358#3"/>
    <trip id="01192" depart="2184.00" from="210312613" to="-164512031#2"/>
    <trip id="01193" depart="2186.00" from="484588233#2" to="-379316926#5"/>
    <trip id="01194" depart="2188.00" from="26662417#0" to="-26320273#1"/>
    <trip id="01195" depart="2190.00" from="26513333#5" to="-26320250#1"/>
    <trip id="01196" depart="2192.00" from="27500557#17" to="17056758"/>
    <trip id="01197" depart="2194.00" from="-27500534#1" to="16235971#1"/>
    <trip id="01198" depart="2196.00" from="26710735#1" to="-470509521#0"/>
    <trip id="01199" depart="2198.00" from="518955259#3" to="25154425"/>
    <trip id="01200" depart="2200.00" from="-24445795#2" to="25734063#3"/>
    <trip id="01201" depart="2202.00" from="-26320290#3" to="27369585#5"/>
    <trip id="01202" depart="2204.00" from="351535220" to="17469145#7"/>
    <trip id="01203" depart="2206.00" from="17097959#6" to="-25482081#2"/>
    <trip id="01204" depart="2208.00" from="791811885#3" to="26662421#1"/>
    <trip id="01205" depart="2210.00" from="-28010433#0" to="27073482#5"/>
    <trip id="01206" depart="2212.00" from="25401654#5" to="23111066#8"/>
    <trip id="01207" depart="2214.00" from="17058489#2" to="516209079"/>
    <trip id="01208" depart="2216.00" from="-379316928#1" to="26513335#4"/>
    <trip id="01209" depart="2218.00" from="26662416#0" to="241280576#4"/>
    <trip id="01210" depart="2220.00" from="-25775254#3" to="26513348#0"/>
    <trip id="01211" depart="2222.00" from="-156804370#0" to="27500568#0"/>
    <trip id="01212" depart="2224.00" from="-26662453" to="25734077#3"/>
    <trip id="01213" depart="2226.00" from="-26320243#6" to="-27073221#2"/>
    <trip id="01214" depart="2228.00" from="303161432#2" to="476958262"/>
    <trip id="01215" depart="2230.00" from="17468879#5" to="24445795#1"/>
    <trip id="01217" depart="2234.00" from="-26513305#3" to="23236825#1"/>
    <trip id="01218" depart="2236.00" from="26662425" to="16966154#5"/>
    <trip id="01219" depart="2238.00" from="28010525#2" to="50275729"/>
    <trip id="01220" depart="2240.00" from="25482068#4" to="24371425#1"/>
    <trip id="01221" depart="2242.00" from="25420557#0" to="27718578#1"/>
    <trip id="01222" depart="2244.00" from="26513333#1" to="26513354#1"/>
    <trip id="01223" depart="2246.00" from="377869587#6" to="27440461#0"/>
    <trip id="01224" depart="2248.00" from="30793592#0" to="50113244#0"/>
    <trip id="01225" depart="2250.00" from="-40284876#1" to="-319507402#1"/>
    <trip id="01226" depart="2252.00" from="-26662452" to="41152981#5"/>
    <trip id="01227" depart="2254.00" from="-17468879#10" to="25401598"/>
    <trip id="01228" depart="2256.00" from="-26320262#0" to="-40303681"/>
    <trip id="01229" depart="2258.00" from="-25775320#0" to="26710689#0"/>
    <trip id="01230" depart="2260.00" from="23110739#6" to="25482098"/>
    <trip id="01231" depart="2262.00" from="-26513278#0" to="-25465248#9"/>
    <trip id="01232" depart="2264.00" from="-25154086#0" to="-25775257#1"/>
    <trip id="01233" depart="2266.00" from="592334651" to="24445795#1"/>
    <trip id="01234" depart="2268.00" from="-41424226#1" to="-272969845"/>
    <trip id="01235" depart="2270.00" from="226025406#2" to="-25281472#0"/>
    <trip id="01236" depart="2272.00" from="319277813#0" to="-27720162#1"/>
    <trip id="01237" depart="2274.00" from="26320261#1" to="300350422#3"/>
    <trip id="01238" depart="2276.00" from="26513286#1" to="156799724#10"/>
    <trip id="01239" depart="2278.00" from="34612477#0" to="41152981#5"/>
    <trip id="01240" depart="2280.00" from="-26513301#0" to="-27073232"/>
    <trip id="01241" depart="2282.00" from="25734065#7" to="28257906#4"/>
    <trip id="01242" depart="2284.00" from="-27500497#1" to="-26662398#2"/>
    <trip id="01243" depart="2286.00" from="-25775296#0" to="-104101429#1"/>
    <trip id="01244" depart="2288.00" from="25465262" to="379316926#4"/>
    <trip id="01245" depart="2290.00" from="-26662395#5" to="26513352#3"/>
    <trip id="01246" depart="2292.00" from="-29043347#2" to="25401626#1"/>
    <trip id="01247" depart="2294.00" from="27500497#0" to="25775292#3"/>
    <trip id="01248" depart="2296.00" from="17096200#4" to="27500492#6"/>
    <trip id="01249" depart="2298.00" from="25734058#2" to="665595730#5"/>
    <trip id="01250" depart="2300.00" from="-23111108" to="-29019823#0"/>
    <trip id="01251" depart="2302.00" from="156810841#1" to="-471523588#2"/>
    <trip id="01252" depart="2304.00" from="-25482077#2" to="25775267#22"/>
    <trip id="01253" depart="2306.00" from="17007879#3" to="-25775258#2"/>
    <trip id="01255" depart="2310.00" from="-26662395#7" to="27720004#4"/>
    <trip id="01256" depart="2312.00" from="27073591#0" to="24801349#1"/>
    <trip id="01257" depart="2314.00" from="27736408#8" to="-25734077#5"/>
    <trip id="01258" depart="2316.00" from="26513282" to="28257906#4"/>
    <trip id="01259" depart="2318.00" from="25281472#0" to="25401635#3"/>
    <trip id="01260" depart="2320.00" from="518955256" to="-28010486#2"/>
    <trip id="01261" depart="2322.00" from="-351538206#4" to="-26710730#2"/>
    <trip id="01262" depart="2324.00" from="-332419555#2" to="470509521#0"/>
    <trip id="01263" depart="2326.00" from="26320272#1" to="-26513313#1"/>
    <trip id="01264" depart="2328.00" from="243980239#3" to="-470247601#1"/>
    <trip id="01265" depart="2330.00" from="-25775277#0" to="-471778448#0"/>
    <trip id="01266" depart="2332.00" from="392659954#3" to="25734074#6"/>
    <trip id="01267" depart="2334.00" from="-27720004#1" to="-25420550#8"/>
    <trip id="01268" depart="2336.00" from="303161435#1" to="27500577#1"/>
    <trip id="01269" depart="2338.00" from="25734067#1" to="25123913#0"/>
    <trip id="01270" depart="2340.00" from="17061184#9" to="-27500557#14"/>
    <trip id="01271" depart="2342.00" from="471778454#1" to="24411825#9"/>
    <trip id="01272" depart="2344.00" from="-25775330#1" to="17006968"/>
    <trip id="01273" depart="2346.00" from="25401621#3" to="27500557#8"/>
    <trip id="01274" depart="2348.00" from="318885149#6" to="-25465204#1"/>
    <trip id="01275" depart="2350.00" from="665595730#2" to="283052784"/>
    <trip id="01276" depart="2352.00" from="-303161435#3" to="-26662398#0"/>
    <trip id="01277" depart="2354.00" from="227220003#1" to="217914480"/>
    <trip id="01278" depart="2356.00" from="-25635518#1" to="24411825#9"/>
    <trip id="01279" depart="2358.00" from="470530195#3" to="27500567#0"/>
    <trip id="01280" depart="2360.00" from="27718572#0" to="-25775284"/>
    <trip id="01281" depart="2362.00" from="-470509518" to="41937464"/>
    <trip id="01282" depart="2364.00" from="-41937452#8" to="-23110739#2"/>
    <trip id="01283" depart="2366.00" from="25482082" to="25123902#1"/>
    <trip id="01284" depart="2368.00" from="25287058#1-AddedOffRampEdge" to="227245225#0"/>
    <trip id="01285" depart="2370.00" from="16966154#4" to="29043347#1"/>
    <trip id="01286" depart="2372.00" from="159767072" to="-25775294#1"/>
    <trip id="01287" depart="2374.00" from="25775289#0" to="27500492#8"/>
    <trip id="01288" depart="2376.00" from="-665595730#1" to="25465196#2"/>
    <trip id="01289" depart="2378.00" from="-25482085" to="17007350#0"/>
    <trip id="01290" depart="2380.00" from="104101429#0" to="377869587#5"/>
    <trip id="01291" depart="2382.00" from="-26662409#1" to="-25775267#17"/>
    <trip id="01292" depart="2384.00" from="-24801361#1" to="-26320290#3"/>
    <trip id="01293" depart="2386.00" from="41556548#0" to="28257906#6"/>
    <trip id="01294" depart="2388.00" from="25775283#1" to="41424226#3"/>
    <trip id="01295" depart="2390.00" from="-26320268#0" to="-392330107#2"/>
    <trip id="01296" depart="2392.00" from="-355858458#4" to="470247618#1"/>
    <trip id="01297" depart="2394.00" from="-26710735#0" to="-420861219#2"/>
    <trip id="01298" depart="2396.00" from="-319507402#1" to="221134596#0"/>
    <trip id="01299" depart="2398.00" from="-26513314#2" to="26662395#5"/>
    <trip id="01300" depart="2400.00" from="25775267#21" to="25775304#1"/>
    <trip id="01301" depart="2402.00" from="-26320250#0" to="25420550#8"/>
    <trip id="01302" depart="2404.00" from="-28010493#3" to="26710731#3"/>
    <trip id="01303" depart="2406.00" from="157770087#0" to="-16235199#1"/>
    <trip id="01304" depart="2408.00" from="25401651#2" to="28257919#7"/>
    <trip id="01305" depart="2410.00" from="392330107#2" to="25775318#1"/>
    <trip id="01306" depart="2412.00" from="665595730#1" to="-25465262"/>
    <trip id="01307" depart="2414.00" from="26427400#1" to="26662436#0"/>
    <trip id="01308" depart="2416.00" from="778015025#0" to="-50275728#3"/>
    <trip id="01309" depart="2418.00" from="-25482107#1" to="38259236#1"/>
    <trip id="01310" depart="2420.00" from="25366404-AddedOffRampEdge" to="24444098#7"/>
    <trip id="01311" depart="2422.00" from="-471778445#2" to="-27500559"/>
    <trip id="01312" depart="2424.00" from="26513305#7" to="-26513335#0"/>
    <trip id="01313" depart="2426.00" from="23111651#0" to="25366411"/>
    <trip id="01314" depart="2428.00" from="24411814#5" to="17094536#1"/>
    <trip id="01315" depart="2430.00" from="-17469145#4" to="470509533#5"/>
    <trip id="01316" depart="2432.00" from="586701936#0" to="16232121#20"/>
    <trip id="01317" depart="2434.00" from="25775351#0" to="392529596"/>
    <trip id="01318" depart="2436.00" from="25734077#0" to="193226314#0"/>
    <trip id="01319" depart="2438.00" from="27720390#8" to="17469145#8"/>
    <trip id="01320" depart="2440.00" from="16232241#5" to="26662466#2"/>
    <trip id="01321" depart="2442.00" from="25734067#6" to="23111076#0"/>
    <trip id="01322" depart="2444.00" from="25420499#4" to="28010525#3"/>
    <trip id="01323" depart="2446.00" from="471523532#1" to="25230353#2"/>
    <trip id="01324" depart="2448.00" from="26320279#0" to="17095380#1"/>
    <trip id="01325" depart="2450.00" from="-303161435#2" to="591766587#1"/>
    <trip id="01326" depart="2452.00" from="-25775351#1" to="16243987#0"/>
    <trip id="01327" depart="2454.00" from="-28010498#8" to="25775350"/>
    <trip id="01328" depart="2456.00" from="28010498#9" to="16224701#6"/>
    <trip id="01329" depart="2458.00" from="17461769#0" to="28010582#5"/>
    <trip id="01330" depart="2460.00" from="27073221#0" to="26513323#4"/>
    <trip id="01331" depart="2462.00" from="-27760790#2" to="292979149#1-AddedOnRampEdge"/>
    <trip id="01332" depart="2464.00" from="25401626#3" to="-26662431#5"/>
    <trip id="01333" depart="2466.00" from="25420535#4" to="25775335#2"/>
    <trip id="01334" depart="2468.00" from="-351536620" to="25420550#9"/>
    <trip id="01335" depart="2470.00" from="25154100#1" to="-355858458#4"/>
    <trip id="01336" depart="2472.00" from="25775265#1" to="-26662452"/>
    <trip id="01337" depart="2474.00" from="23115994#1" to="-25734077#7"/>
    <trip id="01339" depart="2478.00" from="470247604#4" to="28010570#0"/>
    <trip id="01340" depart="2480.00" from="-24411813#0" to="-25482112#2"/>
    <trip id="01341" depart="2482.00" from="-104613682#3" to="25401644#0"/>
    <trip id="01342" depart="2484.00" from="470247644" to="34612501#1"/>
    <trip id="01343" depart="2486.00" from="16232090#4" to="-27440573#0"/>
    <trip id="01344" depart="2488.00" from="517932039" to="-16233070#3"/>
    <trip id="01345" depart="2490.00" from="472541422" to="26320260#3"/>
    <trip id="01346" depart="2492.00" from="-24411814#14" to="-105760885#0"/>
    <trip id="01347" depart="2494.00" from="25290968#3" to="150555043#2"/>
    <trip id="01348" depart="2496.00" from="-16243938#3" to="25775320#0"/>
    <trip id="01349" depart="2498.00" from="28010435#2" to="29043116#4-AddedOffRampEdge"/>
    <trip id="01350" depart="2500.00" from="25420496#1" to="-379316923#3"/>
    <trip id="01351" depart="2502.00" from="-24411832#5" to="247208012#2"/>
    <trip id="01352" depart="2504.00" from="24411821#1" to="25482072#1"/>
    <trip id="01353" depart="2506.00" from="-25482068#0" to="-26320250#0"/>
    <trip id="01355" depart="2510.00" from="41937494#0" to="25465226#0"/>
    <trip id="01356" depart="2512.00" from="25734077#2" to="16236020#0"/>
    <trip id="01357" depart="2514.00" from="-156810944#2" to="24411832#3"/>
    <trip id="01358" depart="2516.00" from="26662417#6" to="472541447"/>
    <trip id="01359" depart="2518.00" from="-337192923#1" to="-25775267#2"/>
    <trip id="01360" depart="2520.00" from="26513341#0" to="-25281468#6"/>
    <trip id="01361" depart="2522.00" from="27720251#6" to="-25465192"/>
    <trip id="01363" depart="2526.00" from="-25601087#4" to="27719284#2"/>
    <trip id="01364" depart="2528.00" from="25482121#7" to="-665595729#5"/>
    <trip id="01365" depart="2530.00" from="24411814#9" to="26662403#3"/>
    <trip id="01366" depart="2532.00" from="-30793355#1" to="-26662451#0"/>
    <trip id="01367" depart="2534.00" from="351536386#1" to="27720505#2"/>
    <trip id="01368" depart="2536.00" from="-24411814#9" to="23116043"/>
    <trip id="01369" depart="2538.00" from="128245207#4" to="-25734064#0"/>
    <trip id="01370" depart="2540.00" from="25401638#5" to="26513307#4"/>
    <trip id="01371" depart="2542.00" from="-25482061#0" to="-420861219#5"/>
    <trip id="01372" depart="2544.00" from="-26710726#0" to="-27500527"/>
    <trip id="01373" depart="2546.00" from="-26427407#1" to="220782227"/>
    <trip id="01374" depart="2548.00" from="25775251#5" to="28010471"/>
    <trip id="01375" depart="2550.00" from="26513354#1" to="-25170670#3"/>
    <trip id="01376" depart="2552.00" from="27924747#0" to="377869587#4"/>
    <trip id="01377" depart="2554.00" from="28010529#2" to="-27440573#0"/>
    <trip id="01378" depart="2556.00" from="-26513305#3" to="-28010492#0"/>
    <trip id="01379" depart="2558.00" from="28010517#0" to="27719284#8"/>
    <trip id="01380" depart="2560.00" from="302399308#7" to="-26662459"/>
    <trip id="01381" depart="2562.00" from="-25465212#0" to="-392330107#4"/>
    <trip id="01382" depart="2564.00" from="25366382#0" to="-25775290#2"/>
    <trip id="01383" depart="2566.00" from="16224377#0" to="26427381#3"/>
    <trip id="01384" depart="2568.00" from="25734063#3" to="25281498"/>
    <trip id="01385" depart="2570.00" from="470223626" to="25366422#1-AddedOnRampEdge"/>
    <trip id="01386" depart="2572.00" from="26513304#1" to="665595729#5"/>
    <trip id="01387" depart="2574.00" from="26427383#2" to="25482112#0"/>
    <trip id="01388" depart="2576.00" from="244856608#0" to="-26710687#0"/>
    <trip id="01389" depart="2578.00" from="-26662395#1" to="-25465241#0"/>
    <trip id="01390" depart="2580.00" from="34725708#3" to="-26513319#12"/>
    <trip id="01391" depart="2582.00" from="26513278#0" to="-17056546#3"/>
    <trip id="01392" depart="2584.00" from="26513329#0" to="-27500507#1"/>
    <trip id="01393" depart="2586.00" from="-23111066#6" to="-26513280#1"/>
    <trip id="01394" depart="2588.00" from="25366451#1" to="-26513318#1"/>
    <trip id="01395" depart="2590.00" from="-16232121#9" to="-27500559"/>
    <trip id="01396" depart="2592.00" from="-27440411#1" to="-25482084#0"/>
    <trip id="01397" depart="2594.00" from="28010570#4" to="-16232458#0"/>
    <trip id="01398" depart="2596.00" from="-24445796#1" to="23111070#0"/>