<?xml version="1.0" encoding="UTF-8"?>

<!-- generated on 07/11/20 20:20:00 by Eclipse SUMO polyconvert Version 1.6.0
<configuration xmlns:xsi="http://www.w3.org/2001/XMLSchema-instance" xsi:noNamespaceSchemaLocation="http://sumo.dlr.de/xsd/polyconvertConfiguration.xsd">

    <input>
        <net-file value="osm.net.xml"/>
        <osm-files value="osm_bbox.osm.xml"/>
        <osm.keep-full-type value="true"/>
        <type-file value="C:\Program%20Files%20(x86)\Eclipse\Sumo\data\typemap\osmPolyconvert.typ.xml"/>
    </input>

    <output>
        <output-file value="osm.poly.xml"/>
    </output>

    <processing>
        <poi-layer-offset value="5"/>
    </processing>

    <report>
        <verbose value="true"/>
    </report>

</configuration>
-->

<additional xmlns:xsi="http://www.w3.org/2001/XMLSchema-instance" xsi:noNamespaceSchemaLocation="http://sumo.dlr.de/xsd/additional_file.xsd">
    <location netOffset="-321991.99,-5184736.81" convBoundary="-125114.14,-66552.25,14177.01,10875.76" origBoundary="-72.925399,46.149792,-71.150294,46.890918" projParameter="+proj=utm +zone=19 +ellps=WGS84 +datum=WGS84 +units=m +no_defs"/>

    <poly id="103855863" type="building.yes" color="255,230,230" fill="1" layer="-1.00" shape="8518.381906,5046.915712 8531.886017,5058.410296 8503.549443,5093.075151 8490.429831,5082.492762 8518.381906,5046.915712"/>
    <poly id="103855929" type="building.hospital" color="255,230,230" fill="1" layer="-1.00" shape="7637.003357,950.818554 7646.742645,958.448559 7644.052408,961.861234 7669.465861,981.745641 7674.875605,974.875000 7670.462933,971.419532 7676.836864,963.275974 7709.778898,989.051874 7703.182367,997.424135 7680.229088,979.460290 7668.996854,993.724849 7641.669862,972.337936 7633.091032,983.235418 7619.712759,972.773012 7637.003357,950.818554"/>
    <poly id="103856163" type="building.yes" color="255,230,230" fill="1" layer="-1.00" shape="8632.825031,6040.047164 8677.423117,6081.121623 8655.812136,6104.441656 8611.214368,6063.378469 8632.825031,6040.047164"/>
    <poly id="103856532" type="building.hospital" color="255,230,230" fill="1" layer="-1.00" shape="7696.485601,2170.716472 7689.821349,2203.244983 7699.832168,2206.530178 7673.336737,2283.493725 7617.445465,2266.900540 7622.211846,2250.339664 7597.925985,2237.718823 7592.763684,2251.900023 7572.530114,2244.857845 7583.914594,2213.229131 7646.378721,2235.151025 7650.756332,2221.292450 7570.529850,2193.058730 7574.950083,2180.166385 7661.578063,2207.717735 7678.825936,2163.445077 7696.485601,2170.716472"/>
    <poly id="103856578" type="building.yes" color="255,230,230" fill="1" layer="-1.00" shape="9924.356183,1692.620731 9940.951157,1691.943997 9940.666056,1718.529983 9935.343307,1718.490220 9935.147431,1731.106360 9923.935237,1731.509806 9924.356183,1692.620731"/>
    <poly id="103856591" type="building.yes" color="255,230,230" fill="1" layer="-1.00" shape="6676.051445,3288.016501 6722.434174,3266.739109 6739.297992,3301.231937 6709.564211,3315.849843 6718.373186,3334.269820 6701.570057,3340.333051 6693.725871,3323.620352 6671.843736,3333.320887 6666.122360,3319.572368 6676.051445,3288.016501"/>
    <poly id="103856933" type="amenity.place_of_worship" color="237,199,199" fill="1" layer="-1.00" shape="7521.133064,3650.571935 7522.708656,3647.735768 7504.686897,3637.795288 7503.111310,3640.631459 7499.296026,3638.527047 7494.482187,3647.193738 7498.297468,3649.298148 7497.244750,3651.196410 7483.198404,3643.355844 7482.755640,3644.158027 7480.925370,3643.142546 7479.246819,3646.115106 7481.146994,3647.173078 7480.878412,3647.658920 7470.684483,3642.155262 7466.911307,3649.035261 7462.293811,3650.656936 7459.517025,3656.340885 7461.335988,3661.515853 7471.096791,3666.820532 7469.079418,3670.492232 7471.482914,3671.802768 7469.408010,3675.598434 7477.075737,3679.772801 7479.107415,3676.067335 7506.025571,3690.714316 7509.044185,3685.212558 7514.951841,3688.425089 7518.579784,3681.805034 7512.943485,3678.740464 7516.310160,3672.594918 7485.344394,3655.727772 7487.634195,3651.436678 7488.476811,3649.933623 7507.161066,3660.355629 7507.938525,3658.976761 7514.460416,3662.583275 7516.319522,3659.249720 7521.133064,3650.571935"/>
    <poly id="103856933#1" type="building.yes" color="255,230,230" fill="1" layer="-1.00" shape="7521.133064,3650.571935 7522.708656,3647.735768 7504.686897,3637.795288 7503.111310,3640.631459 7499.296026,3638.527047 7494.482187,3647.193738 7498.297468,3649.298148 7497.244750,3651.196410 7483.198404,3643.355844 7482.755640,3644.158027 7480.925370,3643.142546 7479.246819,3646.115106 7481.146994,3647.173078 7480.878412,3647.658920 7470.684483,3642.155262 7466.911307,3649.035261 7462.293811,3650.656936 7459.517025,3656.340885 7461.335988,3661.515853 7471.096791,3666.820532 7469.079418,3670.492232 7471.482914,3671.802768 7469.408010,3675.598434 7477.075737,3679.772801 7479.107415,3676.067335 7506.025571,3690.714316 7509.044185,3685.212558 7514.951841,3688.425089 7518.579784,3681.805034 7512.943485,3678.740464 7516.310160,3672.594918 7485.344394,3655.727772 7487.634195,3651.436678 7488.476811,3649.933623 7507.161066,3660.355629 7507.938525,3658.976761 7514.460416,3662.583275 7516.319522,3659.249720 7521.133064,3650.571935"/>
    <poly id="103856984" type="building.yes" color="255,230,230" fill="1" layer="-1.00" shape="6711.350237,933.929498 6721.926929,941.956727 6730.068042,931.292782 6743.017933,941.131648 6733.175531,953.990502 6736.321278,956.380553 6735.135691,957.915738 6701.206706,1000.910834 6671.710434,977.766338 6660.317075,992.193208 6642.842582,978.480383 6668.555267,945.928698 6682.383482,928.518605 6702.829241,944.659931 6711.350237,933.929498"/>
    <poly id="103857146" type="building.yes" color="255,230,230" fill="1" layer="-1.00" shape="9749.363068,2477.369524 9755.555763,2476.061312 9756.240662,2479.789696 9786.646537,2473.509045 9791.035853,2484.917789 9794.318634,2502.051314 9755.035510,2510.271559 9749.363068,2477.369524"/>
    <poly id="103857229" type="landuse.industrial" color="209,209,204" fill="1" layer="-3.00" shape="9835.739349,5857.973781 9999.674515,6119.462622 9993.579215,6132.800522 9764.341197,6029.280549 9733.538961,6008.061071 9807.362151,5922.514512 9788.021553,5904.898185 9835.739349,5857.973781"/>
    <poly id="103857494" type="building.yes" color="255,230,230" fill="1" layer="-1.00" shape="8481.489740,4975.364374 8522.251116,5012.965860 8510.374795,5025.546012 8487.792767,5002.843083 8451.772923,5039.705246 8437.243427,5023.268919 8481.489740,4975.364374"/>
    <poly id="103857597" type="building.yes" color="255,230,230" fill="1" layer="-1.00" shape="7200.193821,5697.975446 7262.395868,5747.990350 7247.366235,5768.381067 7183.874860,5717.835958 7200.193821,5697.975446"/>
    <poly id="103857601" type="building.school" color="255,230,230" fill="1" layer="-1.00" shape="7332.658623,1793.521810 7358.355814,1763.119790 7373.491760,1775.822385 7360.233002,1791.502098 7378.732887,1807.044785 7392.471406,1790.784295 7407.185119,1803.143126 7381.007815,1834.114643 7332.658623,1793.521810"/>
    <poly id="103857612" type="amenity.school" color="237,199,199" fill="1" layer="-1.00" shape="7560.280776,3920.849010 7578.120917,3916.126479 7589.743703,3959.789489 7591.523861,3959.316240 7596.325887,3977.328688 7599.348524,3976.530943 7601.904187,3986.144411 7594.707639,3988.050683 7600.620890,4010.246285 7587.606658,4013.697101 7584.744496,4002.969162 7589.297180,4001.760881 7585.246263,3986.540617 7552.134322,3995.300963 7545.485311,3970.323906 7571.612768,3963.408191 7560.280776,3920.849010"/>
    <poly id="103857612#1" type="building.yes" color="255,230,230" fill="1" layer="-1.00" shape="7560.280776,3920.849010 7578.120917,3916.126479 7589.743703,3959.789489 7591.523861,3959.316240 7596.325887,3977.328688 7599.348524,3976.530943 7601.904187,3986.144411 7594.707639,3988.050683 7600.620890,4010.246285 7587.606658,4013.697101 7584.744496,4002.969162 7589.297180,4001.760881 7585.246263,3986.540617 7552.134322,3995.300963 7545.485311,3970.323906 7571.612768,3963.408191 7560.280776,3920.849010"/>
    <poly id="103858369" type="building.yes" color="255,230,230" fill="1" layer="-1.00" shape="8586.040705,6066.493179 8596.166921,6075.714720 8587.211714,6085.487578 8643.777221,6136.954479 8628.272483,6153.885334 8600.612277,6128.712550 8542.909022,6191.732753 8516.290526,6167.520590 8562.359482,6117.195791 8542.162290,6098.817999 8570.484893,6067.878859 8578.277339,6074.975667 8586.040705,6066.493179"/>
    <poly id="103858547" type="building.yes" color="255,230,230" fill="1" layer="-1.00" shape="6521.891741,2619.660656 6540.857090,2612.256245 6574.561314,2694.386661 6555.012668,2702.208022 6521.891741,2619.660656"/>
    <poly id="103858981" type="building.residential" color="255,230,230" fill="1" layer="-1.00" shape="7814.940389,1020.094284 7874.140596,1068.145324 7854.946239,1091.376397 7795.746082,1043.325546 7814.940389,1020.094284"/>
    <poly id="103859274" type="building.school" color="255,230,230" fill="1" layer="-1.00" shape="7607.578254,2051.750257 7625.609839,2057.587433 7610.852529,2101.111047 7609.153067,2106.052501 7604.888250,2104.817058 7602.481071,2103.128441 7568.914415,2092.250694 7568.767831,2090.586753 7562.802016,2088.065236 7567.410816,2073.210277 7597.459722,2082.809094 7607.578254,2051.750257"/>
    <poly id="103859394" type="building.yes" color="255,230,230" fill="1" layer="-1.00" shape="7008.254370,2533.017308 7016.409755,2533.084799 7026.270555,2539.676022 7029.581535,2548.422566 7027.032753,2559.160155 7021.188977,2564.920702 7008.668665,2567.057383 7000.591112,2563.028678 6995.796331,2556.059348 6995.399996,2545.116669 7001.288445,2536.374447 7008.254370,2533.017308"/>
    <poly id="103859394#1" type="man_made.wastewater_plant" color="255,230,230" fill="1" layer="-1.00" shape="7008.254370,2533.017308 7016.409755,2533.084799 7026.270555,2539.676022 7029.581535,2548.422566 7027.032753,2559.160155 7021.188977,2564.920702 7008.668665,2567.057383 7000.591112,2563.028678 6995.796331,2556.059348 6995.399996,2545.116669 7001.288445,2536.374447 7008.254370,2533.017308"/>
    <poly id="103859669" type="building.yes" color="255,230,230" fill="1" layer="-1.00" shape="6437.367340,4216.425395 6477.221097,4241.139665 6457.146231,4273.298113 6417.299894,4248.572648 6437.367340,4216.425395"/>
    <poly id="103860054" type="building.yes" color="255,230,230" fill="1" layer="-1.00" shape="6956.752867,4516.897528 6967.685901,4522.123373 6970.904389,4515.636944 6979.483251,4512.722877 6978.484066,4509.804395 6981.477138,4508.784746 6980.536094,4506.031415 6983.695663,4504.962529 6982.721578,4502.121175 6985.397236,4501.210683 6984.170269,4497.264467 6985.630607,4485.601471 6988.236497,4480.644986 6986.174436,4479.525076 7002.213498,4446.549616 7007.475756,4449.090567 7016.666633,4430.189553 7014.197861,4428.992282 7024.845102,4407.102670 6959.375055,4375.465529 6952.866116,4388.863041 6955.342544,4390.060070 6953.057241,4394.751629 6947.694190,4392.157997 6943.265639,4401.170078 6946.155448,4402.143996 6941.417258,4405.126304 6943.195905,4407.277415 6939.492298,4409.340499 6940.727297,4411.429296 6937.802481,4412.969692 6935.497511,4417.239230 6941.138881,4419.958348 6926.253811,4450.576753 6936.622056,4455.796446 6934.447688,4460.362516 6974.444642,4479.270731 6958.824913,4512.490080 6956.752867,4516.897528"/>
    <poly id="103860239" type="building.yes" color="255,230,230" fill="1" layer="-1.00" shape="6402.594879,2957.714725 6401.428679,2954.845587 6412.605143,2950.332849 6422.527155,2974.781448 6411.154643,2979.377632 6409.996396,2976.519385 6374.301343,2990.931563 6366.703320,2972.199297 6402.594879,2957.714725"/>
    <poly id="103860721" type="amenity.place_of_worship" color="237,199,199" fill="1" layer="-1.00" shape="8005.876810,3836.843119 8000.256547,3833.521880 7998.959926,3835.704990 8003.982544,3838.676210 7995.976510,3852.137164 7991.094013,3849.262059 7989.549774,3851.863670 7995.038169,3855.110797 7993.559098,3857.588228 8000.196065,3861.503358 8001.667512,3859.026145 8026.469401,3873.679829 8024.640974,3876.756567 8037.620282,3884.428449 8039.448714,3881.351715 8055.478758,3890.827571 8066.333071,3872.570683 8052.926758,3864.643960 8056.074087,3859.361260 8051.998648,3856.952516 8050.483314,3859.497685 8040.057841,3853.332433 8041.828112,3850.357437 8037.628430,3847.874384 8034.226487,3853.598029 8012.071514,3840.503919 8015.256436,3834.664093 8008.938388,3831.229205 8005.876810,3836.843119"/>
    <poly id="103860721#1" type="building.yes" color="255,230,230" fill="1" layer="-1.00" shape="8005.876810,3836.843119 8000.256547,3833.521880 7998.959926,3835.704990 8003.982544,3838.676210 7995.976510,3852.137164 7991.094013,3849.262059 7989.549774,3851.863670 7995.038169,3855.110797 7993.559098,3857.588228 8000.196065,3861.503358 8001.667512,3859.026145 8026.469401,3873.679829 8024.640974,3876.756567 8037.620282,3884.428449 8039.448714,3881.351715 8055.478758,3890.827571 8066.333071,3872.570683 8052.926758,3864.643960 8056.074087,3859.361260 8051.998648,3856.952516 8050.483314,3859.497685 8040.057841,3853.332433 8041.828112,3850.357437 8037.628430,3847.874384 8034.226487,3853.598029 8012.071514,3840.503919 8015.256436,3834.664093 8008.938388,3831.229205 8005.876810,3836.843119"/>
    <poly id="103860742" type="natural.water" color="181,209,209" fill="0" layer="-4.00" shape="6648.558620,2272.368982 6684.425691,2272.611053 6717.400521,2278.507559 6733.616979,2279.322865 6732.491534,2275.740769 6721.947231,2269.036081 6710.592904,2269.783281 6705.078227,2265.692792 6703.813857,2262.325968 6705.092974,2256.862433 6716.879242,2258.938686 6726.326989,2264.940739 6742.154645,2270.849401 6810.589477,2279.580708 6953.775407,2313.735559 6993.160849,2332.406267 7034.572992,2359.771453 7050.576978,2376.429677 7062.645392,2392.154875 7068.746545,2399.153710 7073.599064,2403.597030 7087.031597,2418.705072 7093.564132,2419.953294 7104.410154,2420.667007 7109.124856,2426.971457 7113.479963,2434.587300 7112.112985,2441.799203 7110.844881,2452.744871 7111.089892,2461.334254 7116.323610,2471.382730 7126.372941,2484.852509 7133.790368,2492.503348 7148.943398,2495.674317 7154.082288,2491.157294 7164.173529,2507.439494 7163.531983,2512.784646 7167.669565,2524.020981 7172.723503,2534.730753 7185.494286,2558.242932 7191.202135,2573.949546 7206.507792,2607.920870 7215.362280,2648.581799 7216.392226,2656.859663 7212.713534,2682.064153 7213.061289,2702.027171 7214.028698,2712.931323 7214.390638,2717.057937 7220.522852,2729.983397 7223.937711,2731.943389 7227.975720,2731.661461 7226.858932,2771.483470 7220.981875,2814.365962 7194.541325,2915.952049 7191.302236,2933.270521 7191.182423,2944.328006 7192.419914,2952.655555 7196.772886,2961.550391 7201.093674,2974.938949 7206.439222,2997.495185 7209.299890,3022.324193 7214.760439,3041.151689 7221.221695,3039.121413 7225.328721,3053.583675 7226.474967,3061.658052 7224.864961,3072.124137 7224.662619,3081.627063 7226.937100,3100.089456 7229.709338,3110.575170 7236.094739,3120.613128 7242.101654,3130.228171 7243.692694,3135.965624 7245.663634,3143.782956 7251.251811,3155.044701 7252.847962,3156.945337 7261.208344,3164.502684 7264.866621,3170.726132 7274.071267,3185.943895 7300.052693,3209.680226 7320.559069,3225.321056 7347.648359,3236.782022 7382.582209,3247.085489 7415.499951,3253.609907 7451.435775,3252.197293 7473.796412,3249.336457 7503.295102,3241.946528 7528.357999,3227.821486 7565.835299,3204.391068 7591.712755,3187.763200 7600.754895,3185.226192 7612.898066,3181.144161 7643.229346,3158.996264 7668.954721,3138.080468 7688.174616,3122.198415 7719.627498,3088.197695 7764.339847,3039.140921"/>
    <poly id="103860834" type="building.yes" color="255,230,230" fill="1" layer="-1.00" shape="9837.248917,4143.917135 9837.900803,4136.692705 9840.843647,4130.060049 9845.769198,4124.728421 9852.158927,4121.257295 9859.481370,4120.017458 9866.804137,4121.235263 9873.322433,4124.788740 9878.307556,4130.275766 9881.215842,4137.088851 9881.713415,4144.481169 9879.754007,4151.619977 9875.552191,4157.720815 9869.569997,4162.114600 9862.632547,4164.288865 9855.362353,4164.126044 9848.530563,4161.637844 9842.861811,4157.081927 9838.965586,4150.963838 9837.248917,4143.917135"/>
    <poly id="103860834#1" type="man_made.storage_tank" color="255,230,230" fill="1" layer="-1.00" shape="9837.248917,4143.917135 9837.900803,4136.692705 9840.843647,4130.060049 9845.769198,4124.728421 9852.158927,4121.257295 9859.481370,4120.017458 9866.804137,4121.235263 9873.322433,4124.788740 9878.307556,4130.275766 9881.215842,4137.088851 9881.713415,4144.481169 9879.754007,4151.619977 9875.552191,4157.720815 9869.569997,4162.114600 9862.632547,4164.288865 9855.362353,4164.126044 9848.530563,4161.637844 9842.861811,4157.081927 9838.965586,4150.963838 9837.248917,4143.917135"/>
    <poly id="103860927" type="building.school" color="255,230,230" fill="1" layer="-1.00" shape="6743.787166,1467.234825 6714.850434,1505.260939 6680.979822,1479.661512 6691.039882,1466.440420 6714.218708,1483.960400 6733.095342,1459.155288 6743.787166,1467.234825"/>
    <poly id="103861100" type="amenity.community_centre" color="237,199,199" fill="1" layer="-1.00" shape="8056.939261,4157.694758 8085.662018,4174.205709 8088.160469,4175.647229 8070.471214,4206.375375 8069.055167,4205.692716 8056.646425,4227.241015 8055.221526,4227.859736 8053.635820,4227.115171 8023.430231,4278.538578 7999.337446,4264.343043 8028.479275,4213.628071 8030.355607,4210.360914 8028.917421,4209.167338 8027.811992,4207.597333 8027.432289,4206.051208 8027.516508,4204.447432 8030.013457,4199.383339 8031.994035,4200.594881 8041.084014,4184.467564 8040.070559,4183.717880 8039.831224,4182.545876 8041.652986,4178.968892 8043.912259,4180.050199 8055.702131,4159.820569 8056.939261,4157.694758"/>
    <poly id="103861100#1" type="building.yes" color="255,230,230" fill="1" layer="-1.00" shape="8056.939261,4157.694758 8085.662018,4174.205709 8088.160469,4175.647229 8070.471214,4206.375375 8069.055167,4205.692716 8056.646425,4227.241015 8055.221526,4227.859736 8053.635820,4227.115171 8023.430231,4278.538578 7999.337446,4264.343043 8028.479275,4213.628071 8030.355607,4210.360914 8028.917421,4209.167338 8027.811992,4207.597333 8027.432289,4206.051208 8027.516508,4204.447432 8030.013457,4199.383339 8031.994035,4200.594881 8041.084014,4184.467564 8040.070559,4183.717880 8039.831224,4182.545876 8041.652986,4178.968892 8043.912259,4180.050199 8055.702131,4159.820569 8056.939261,4157.694758"/>
    <poly id="103861100#2" type="landuse.recreation_ground" color="194,194,130" fill="1" layer="-3.00" shape="8056.939261,4157.694758 8085.662018,4174.205709 8088.160469,4175.647229 8070.471214,4206.375375 8069.055167,4205.692716 8056.646425,4227.241015 8055.221526,4227.859736 8053.635820,4227.115171 8023.430231,4278.538578 7999.337446,4264.343043 8028.479275,4213.628071 8030.355607,4210.360914 8028.917421,4209.167338 8027.811992,4207.597333 8027.432289,4206.051208 8027.516508,4204.447432 8030.013457,4199.383339 8031.994035,4200.594881 8041.084014,4184.467564 8040.070559,4183.717880 8039.831224,4182.545876 8041.652986,4178.968892 8043.912259,4180.050199 8055.702131,4159.820569 8056.939261,4157.694758"/>
    <poly id="103861185" type="building.yes" color="255,230,230" fill="1" layer="-1.00" shape="9195.988301,2556.790971 9180.933024,2583.849028 9177.203873,2587.779602 9154.396487,2590.868918 9149.214802,2562.223751 9154.933635,2561.172917 9167.318974,2526.060886 9172.732335,2527.442968 9173.616186,2526.027986 9192.297697,2534.998527 9185.362463,2551.129758 9195.988301,2556.790971"/>
    <poly id="103861486" type="man_made.pier" color="255,230,230" fill="0" layer="-1.00" shape="10006.162478,2647.368169 10019.037436,2649.153382 10016.154439,2663.946660"/>
    <poly id="103861584" type="building.church" color="255,230,230" fill="1" layer="-1.00" shape="8597.921506,4969.866424 8600.217321,4967.399385 8597.749109,4965.122766 8595.727242,4967.292915 8591.636636,4963.505314 8587.318926,4959.512850 8589.244813,4957.456621 8586.674638,4955.082805 8583.986335,4957.972423 8580.853952,4955.147452 8576.931593,4959.462087 8580.009344,4962.244119 8564.701442,4978.691191 8561.950859,4976.144561 8551.182815,4987.714632 8546.672914,4992.568593 8549.658535,4995.330977 8540.460477,5005.210765 8553.949542,5017.250740 8562.769740,5007.770894 8565.974506,5010.727254 8567.544752,5009.048066 8575.165285,5000.858834 8580.067685,4995.582320 8581.148847,4994.417410 8577.888820,4991.395881 8593.944513,4974.138111 8596.474037,4976.424114 8600.396083,4972.098380 8597.921506,4969.866424"/>
    <poly id="103861668" type="building.yes" color="255,230,230" fill="1" layer="-1.00" shape="8586.605462,5997.506494 8605.072545,6013.787119 8582.439732,6039.282640 8575.874597,6033.496684 8567.541728,6042.884965 8563.120505,6038.984447 8571.194727,6029.892622 8558.729085,6018.891319 8555.497932,6022.530320 8544.276811,6012.639239 8553.844139,6001.848123 8560.886641,6008.054249 8564.516898,6003.959123 8561.801334,6001.556091 8570.873656,5991.335057 8575.748718,5995.634199 8566.839080,6005.672689 8576.644119,6014.325019 8579.357679,6011.267841 8576.572253,6008.822297 8586.605462,5997.506494"/>
    <poly id="103861821" type="building.yes" color="255,230,230" fill="1" layer="-1.00" shape="9329.274420,1614.483255 9338.184849,1616.656738 9334.943602,1630.081512 9352.819548,1645.069325 9386.728422,1603.313802 9430.178184,1633.896148 9420.470420,1645.445477 9390.414485,1624.416975 9373.062229,1644.588621 9368.233270,1640.665509 9363.865206,1644.980881 9368.792595,1649.145872 9362.581731,1656.348845 9358.341469,1652.453656 9352.209349,1659.198482 9328.428674,1639.772964 9325.908764,1636.507727 9324.484952,1633.122673 9329.274420,1614.483255"/>
    <poly id="103861844" type="amenity.community_centre" color="237,199,199" fill="1" layer="-1.00" shape="8364.007461,2564.600995 8384.370957,2573.343521 8386.480776,2574.251283 8388.265321,2570.141714 8413.876121,2581.137837 8400.140999,2612.909197 8373.695467,2601.547550 8375.966919,2596.301001 8354.320559,2587.005440 8364.007461,2564.600995"/>
    <poly id="103861844#1" type="building.yes" color="255,230,230" fill="1" layer="-1.00" shape="8364.007461,2564.600995 8384.370957,2573.343521 8386.480776,2574.251283 8388.265321,2570.141714 8413.876121,2581.137837 8400.140999,2612.909197 8373.695467,2601.547550 8375.966919,2596.301001 8354.320559,2587.005440 8364.007461,2564.600995"/>
    <poly id="103861848" type="building.yes" color="255,230,230" fill="1" layer="-1.00" shape="8679.054840,5805.493197 8676.790781,5807.992689 8659.203328,5827.395525 8655.939441,5825.030207 8645.918993,5835.733868 8649.236251,5839.176380 8594.026503,5900.112470 8591.548264,5897.469170 8580.553621,5907.711221 8583.747959,5911.123815 8556.830033,5939.965734 8576.244759,5956.831090 8592.637153,5938.629476 8594.583553,5952.942342 8602.476991,5952.552085 8601.098114,5930.794516 8610.624314,5936.062979 8645.944316,5934.229277 8658.078906,5944.317110 8651.857523,5950.409382 8642.951005,5942.231934 8621.943979,5963.722295 8640.736444,5980.716666 8634.039003,5987.778814 8645.058084,6005.093289 8655.178818,5993.630562 8664.798886,6002.221541 8683.806073,5979.353340 8675.539873,5971.691524 8679.391074,5965.154786 8695.782312,5964.702150 8697.074702,5994.202183 8688.586046,5994.586916 8688.594382,5999.735568 8697.295235,5999.300348 8697.938286,6013.939247 8708.417922,6021.093643 8689.892465,6021.884654 8690.287566,6030.725559 8704.445537,6030.358365 8683.242238,6054.345111 8700.026354,6069.405865 8722.695118,6044.899533 8727.646653,6048.940852 8739.413766,6036.608767 8734.377507,6032.269576 8788.317074,5974.173106 8792.998647,5978.110905 8803.936565,5965.046202 8800.142627,5961.739418 8827.657804,5931.858658 8824.867426,5929.235213 8836.695771,5915.544889 8832.654723,5912.133862 8838.954871,5904.771805 8769.425721,5841.425746 8708.188880,5785.630337 8701.828987,5780.361105 8679.054840,5805.493197"/>
    <poly id="103861870" type="amenity.courthouse" color="237,199,199" fill="1" layer="-1.00" shape="8969.748941,2587.513210 8938.572287,2592.952420 8937.466473,2585.688505 8922.531674,2582.351235 8920.007684,2593.543087 8921.339546,2601.512340 8918.735386,2602.019545 8919.710383,2608.163968 8891.500077,2724.625824 8888.123629,2738.065889 8902.742823,2741.322999 8924.174243,2737.648772 8926.739991,2752.010917 8968.987665,2745.047046 8967.527146,2736.302973 8966.732152,2731.665869 8993.802666,2727.365708 8969.748941,2587.513210"/>
    <poly id="103861870#1" type="building.yes" color="255,230,230" fill="1" layer="-1.00" shape="8969.748941,2587.513210 8938.572287,2592.952420 8937.466473,2585.688505 8922.531674,2582.351235 8920.007684,2593.543087 8921.339546,2601.512340 8918.735386,2602.019545 8919.710383,2608.163968 8891.500077,2724.625824 8888.123629,2738.065889 8902.742823,2741.322999 8924.174243,2737.648772 8926.739991,2752.010917 8968.987665,2745.047046 8967.527146,2736.302973 8966.732152,2731.665869 8993.802666,2727.365708 8969.748941,2587.513210"/>
    <poly id="103862161" type="amenity.place_of_worship" color="237,199,199" fill="1" layer="-1.00" shape="9703.668564,2081.238540 9683.373717,2082.253458 9683.586376,2086.562250 9672.867129,2087.096919 9674.244295,2114.648269 9685.138637,2114.097560 9685.203801,2115.330108 9697.722401,2114.711551 9698.251742,2119.422907 9701.239161,2121.407409 9701.316632,2122.806420 9705.165615,2122.575979 9705.088145,2121.176968 9707.447369,2118.464014 9707.252168,2114.232575 9712.474297,2113.963569 9715.775590,2113.804121 9737.953336,2112.691947 9739.406574,2113.874393 9744.496209,2113.509051 9746.033022,2111.686609 9745.433205,2102.017476 9743.136733,2100.169236 9743.020923,2097.948383 9744.433146,2097.942086 9745.441161,2097.135342 9745.518670,2094.186226 9744.387111,2093.584133 9742.859070,2093.816093 9742.673355,2091.552721 9745.409529,2088.940403 9749.192062,2088.789701 9749.199024,2090.668874 9758.797486,2090.188053 9758.645208,2087.212029 9763.867361,2086.943068 9763.602857,2081.601523 9763.208682,2073.817105 9757.391486,2074.102774 9757.322906,2072.747996 9744.788961,2073.366855 9744.854112,2074.599403 9738.366224,2074.926167 9738.593650,2079.490316 9710.781366,2080.871945 9709.767765,2079.577072 9706.636082,2078.708670 9704.230822,2080.055092 9703.668564,2081.238540"/>
    <poly id="103862161#1" type="building.yes" color="255,230,230" fill="1" layer="-1.00" shape="9703.668564,2081.238540 9683.373717,2082.253458 9683.586376,2086.562250 9672.867129,2087.096919 9674.244295,2114.648269 9685.138637,2114.097560 9685.203801,2115.330108 9697.722401,2114.711551 9698.251742,2119.422907 9701.239161,2121.407409 9701.316632,2122.806420 9705.165615,2122.575979 9705.088145,2121.176968 9707.447369,2118.464014 9707.252168,2114.232575 9712.474297,2113.963569 9715.775590,2113.804121 9737.953336,2112.691947 9739.406574,2113.874393 9744.496209,2113.509051 9746.033022,2111.686609 9745.433205,2102.017476 9743.136733,2100.169236 9743.020923,2097.948383 9744.433146,2097.942086 9745.441161,2097.135342 9745.518670,2094.186226 9744.387111,2093.584133 9742.859070,2093.816093 9742.673355,2091.552721 9745.409529,2088.940403 9749.192062,2088.789701 9749.199024,2090.668874 9758.797486,2090.188053 9758.645208,2087.212029 9763.867361,2086.943068 9763.602857,2081.601523 9763.208682,2073.817105 9757.391486,2074.102774 9757.322906,2072.747996 9744.788961,2073.366855 9744.854112,2074.599403 9738.366224,2074.926167 9738.593650,2079.490316 9710.781366,2080.871945 9709.767765,2079.577072 9706.636082,2078.708670 9704.230822,2080.055092 9703.668564,2081.238540"/>
    <poly id="103862238" type="building.yes" color="255,230,230" fill="1" layer="-1.00" shape="9183.914502,4593.926511 9241.968823,4612.395871 9237.536106,4626.243676 9195.737650,4612.943030 9196.748294,4609.811878 9180.484596,4604.632311 9183.914502,4593.926511"/>
    <poly id="103862345" type="building.yes" color="255,230,230" fill="1" layer="-1.00" shape="9922.664382,1610.799073 9940.598282,1610.485133 9946.395669,1669.372381 9927.836235,1671.060558 9922.664382,1610.799073"/>
    <poly id="103862469" type="building.yes" color="255,230,230" fill="1" layer="-1.00" shape="9005.481305,4621.724590 9019.282626,4634.290577 8980.392948,4676.734978 8975.184074,4671.988954 8969.690795,4677.982394 8950.610043,4660.605783 8957.576839,4653.013828 8962.354741,4657.360543 8964.605390,4654.906055 8961.393973,4651.983033 8963.414827,4649.768567 8966.156488,4652.271147 8973.907444,4643.800781 8970.915497,4641.082851 8973.528819,4638.228904 8976.387998,4640.839378 8979.911950,4636.992228 8986.225199,4642.741300 9005.481305,4621.724590"/>
    <poly id="103862547" type="man_made.dyke" color="255,230,230" fill="0" layer="-1.00" shape="10099.760309,2061.663138 10138.483446,2062.768871 10147.956435,2067.074000 10161.585357,2063.300457 10173.864513,2099.920986 10194.527795,2276.702813"/>
    <poly id="103862876" type="building.yes" color="255,230,230" fill="1" layer="-1.00" shape="8514.612950,4941.019868 8527.277209,4952.760646 8526.018083,4954.108535 8529.254652,4957.108461 8533.135320,4952.939543 8531.473840,4951.396319 8533.451200,4949.271889 8536.390154,4952.002227 8544.988915,4942.784403 8549.024617,4946.517925 8550.794776,4944.621781 8560.034055,4953.178969 8549.065128,4964.932658 8546.925636,4962.947013 8541.104476,4969.194822 8546.355375,4974.072736 8544.763193,4975.785912 8546.542183,4977.437020 8529.641295,4995.564025 8494.297616,4962.802272 8514.612950,4941.019868"/>
    <poly id="103862957" type="amenity.place_of_worship" color="237,199,199" fill="1" layer="-1.00" shape="8935.225994,2020.669137 9012.563403,2067.128920 8994.994139,2096.838283 8917.317831,2049.454169 8935.225994,2020.669137"/>
    <poly id="103862957#1" type="building.yes" color="255,230,230" fill="1" layer="-1.00" shape="8935.225994,2020.669137 9012.563403,2067.128920 8994.994139,2096.838283 8917.317831,2049.454169 8935.225994,2020.669137"/>