<?xml version="1.0" encoding="UTF-8"?>

<!-- generated on 10/02/20 17:56:08 by Eclipse SUMO duarouter Version 1.6.0
<configuration xmlns:xsi="http://www.w3.org/2001/XMLSchema-instance" xsi:noNamespaceSchemaLocation="http://sumo.dlr.de/xsd/duarouterConfiguration.xsd">

    <input>
        <net-file value="Quebec\osm.net.xml"/>
        <additional-files value="Quebec\osm.add.xml"/>
        <route-files value="Quebec\other.passenger.trips.xml"/>
    </input>

    <output>
        <output-file value="Quebec\other.passenger.trips.xml.tmp"/>
        <write-trips value="true"/>
    </output>

    <time>
        <begin value="32400.0"/>
        <end value="54000.0"/>
    </time>

    <report>
        <no-warnings value="true"/>
        <ignore-errors value="true"/>
        <no-step-log value="true"/>
    </report>

</configuration>
-->

<routes xmlns:xsi="http://www.w3.org/2001/XMLSchema-instance" xsi:noNamespaceSchemaLocation="http://sumo.dlr.de/xsd/routes_file.xsd">
    <trip id="030" depart="32400.00" from="25420497#2" to="-26320254#0"/>
    <trip id="031" depart="32401.50" from="-25482106#3" to="211660706#3"/>
    <trip id="032" depart="32403.00" from="16232915#3" to="-26513319#13"/>
    <trip id="033" depart="32404.50" from="156799724#8" to="28010560#0"/>
    <trip id="034" depart="32406.00" from="-25482096" to="-26320292"/>
    <trip id="035" depart="32407.50" from="-17055718#4" to="-26662450#3"/>
    <trip id="036" depart="32409.00" from="-25154426#4" to="592069584"/>
    <trip id="037" depart="32410.50" from="-29019797#2" to="657694259"/>
    <trip id="038" depart="32412.00" from="25775267#13" to="-27500569#0"/>
    <trip id="039" depart="32413.50" from="-26662395#7" to="25775335#3"/>
    <trip id="0310" depart="32415.00" from="-25482098" to="-159767072"/>
    <trip id="0311" depart="32416.50" from="27006738#4" to="25482088"/>
    <trip id="0313" depart="32419.50" from="-17095380#1" to="26662462#3"/>
    <trip id="0314" depart="32421.00" from="27719166#3" to="-665595729#1"/>
    <trip id="0315" depart="32422.50" from="-633452341#4" to="-27440572#1"/>
    <trip id="0316" depart="32424.00" from="472541425" to="337192923#1"/>
    <trip id="0317" depart="32425.50" from="-25775336#1" to="26710729#1"/>
    <trip id="0318" depart="32427.00" from="16233470#4" to="-17095262#1"/>
    <trip id="0319" depart="32428.50" from="-26427398#2" to="392440879"/>
    <trip id="0320" depart="32430.00" from="-310720097#7" to="25775304#3"/>
    <trip id="0321" depart="32431.50" from="26662450#1" to="156810874#1"/>
    <trip id="0322" depart="32433.00" from="240860999#1" to="29019823#4"/>
    <trip id="0323" depart="32434.50" from="26513308#4" to="24445797#7"/>
    <trip id="0324" depart="32436.00" from="25123910#8" to="17096799#6"/>
    <trip id="0325" depart="32437.50" from="16236580#2" to="25775287#1"/>
    <trip id="0326" depart="32439.00" from="-26662450#0" to="302399308#9"/>
    <trip id="0327" depart="32440.50" from="-28010472#0" to="-26662405#1"/>
    <trip id="0328" depart="32442.00" from="16224377#4" to="25281468#2"/>
    <trip id="0329" depart="32443.50" from="17055718#7" to="28010485#1"/>
    <trip id="0330" depart="32445.00" from="-156799727#4" to="592069583#1"/>
    <trip id="0331" depart="32446.50" from="-26513319#9" to="-26427409#0"/>
    <trip id="0332" depart="32448.00" from="25775287#2" to="-28010507#2"/>
    <trip id="0333" depart="32449.50" from="24411822" to="25734075#1"/>
    <trip id="0334" depart="32451.00" from="-24411814#10" to="26662444#1"/>
    <trip id="0335" depart="32452.50" from="-26427386#1" to="27719166#3"/>
    <trip id="0336" depart="32454.00" from="351535176#1" to="17097488#2"/>
    <trip id="0337" depart="32455.50" from="-303121078#4" to="24411817#0"/>
    <trip id="0338" depart="32457.00" from="377868538#4" to="586701931#1"/>
    <trip id="0339" depart="32458.50" from="26513277#1" to="157770087#0"/>
    <trip id="0340" depart="32460.00" from="156810838" to="26320269#7"/>
    <trip id="0341" depart="32461.50" from="-351535208" to="27500536#1"/>
    <trip id="0342" depart="32463.00" from="24444089#2" to="24472361#3"/>
    <trip id="0343" depart="32464.50" from="28010526#3" to="351536388"/>
    <trip id="0344" depart="32466.00" from="27440460#1" to="25734057#2"/>
    <trip id="0345" depart="32467.50" from="17461769#0" to="28010583#1"/>
    <trip id="0346" depart="32469.00" from="-26662450#1" to="-239609983"/>
    <trip id="0347" depart="32470.50" from="-28010562#3" to="28010473#0"/>
    <trip id="0348" depart="32472.00" from="25465249#5" to="-16234923#0"/>
    <trip id="0349" depart="32473.50" from="26662399#4" to="25465222#3"/>
    <trip id="0350" depart="32475.00" from="23110710#2" to="-17094990"/>
    <trip id="0351" depart="32476.50" from="-16232121#5" to="-24411814#1"/>
    <trip id="0352" depart="32478.00" from="323729583" to="16230993#2"/>
    <trip id="0353" depart="32479.50" from="-23116043" to="27720394#2"/>
    <trip id="0354" depart="32481.00" from="23111085#9" to="-41424226#7"/>
    <trip id="0355" depart="32482.50" from="156804366#4" to="-26513305#21"/>
    <trip id="0356" depart="32484.00" from="-17097066#2" to="27500514#2"/>
    <trip id="0357" depart="32485.50" from="34612843#0" to="-470186319#1"/>
    <trip id="0358" depart="32487.00" from="-16243938#3" to="791811886#0"/>
    <trip id="0359" depart="32488.50" from="-25465213#1" to="-592265791"/>
    <trip id="0361" depart="32491.50" from="-25775278#4" to="-27440559#0"/>
    <trip id="0362" depart="32493.00" from="17096799#1" to="25482111"/>
    <trip id="0364" depart="32496.00" from="470509529#0" to="-26513346#0"/>
    <trip id="0365" depart="32497.50" from="-26513284#2" to="-175794804#3"/>
    <trip id="0366" depart="32499.00" from="28010486#0" to="24419289#2"/>
    <trip id="0367" depart="32500.50" from="-518955257#0" to="25734063#6"/>
    <trip id="0368" depart="32502.00" from="-27500582" to="-587383103#0"/>
    <trip id="0369" depart="32503.50" from="-25775250#2" to="16244236#1"/>
    <trip id="0370" depart="32505.00" from="-302399308#3" to="25230353#3"/>
    <trip id="0371" depart="32506.50" from="319277813#1" to="27500491#0"/>
    <trip id="0372" depart="32508.00" from="25775259" to="25401639#3"/>
    <trip id="0373" depart="32509.50" from="29043133#0" to="-25775308#0"/>
    <trip id="0374" depart="32511.00" from="471778457#0" to="-25775282#5"/>
    <trip id="0375" depart="32512.50" from="345772681" to="240860995#1"/>
    <trip id="0377" depart="32515.50" from="-25482057#1" to="-29019797#3"/>
    <trip id="0378" depart="32517.00" from="28010508#0" to="-27440573#6"/>
    <trip id="0379" depart="32518.50" from="16224701#11" to="-25465248#14"/>
    <trip id="0380" depart="32520.00" from="-24445805#10" to="-25775289#0"/>
    <trip id="0381" depart="32521.50" from="-240860996#0" to="28010527#1"/>
    <trip id="0382" depart="32523.00" from="-28010469#1" to="25794906"/>
    <trip id="0383" depart="32524.50" from="26710689#1" to="-26662454#2"/>
    <trip id="0384" depart="32526.00" from="17097613#1" to="25482062#1"/>
    <trip id="0385" depart="32527.50" from="-24419307#5" to="29019823#1"/>
    <trip id="0386" depart="32529.00" from="27500559" to="25420497#0"/>
    <trip id="0387" depart="32530.50" from="17007727" to="-26427414#3"/>
    <trip id="0388" depart="32532.00" from="25465210#1" to="41937466#1"/>
    <trip id="0389" depart="32533.50" from="-27500563#0" to="25401640#2"/>
    <trip id="0390" depart="32535.00" from="-26513338#4" to="50113244#1"/>
    <trip id="0391" depart="32536.50" from="25734067#8" to="25420512"/>
    <trip id="0392" depart="32538.00" from="24411832#4" to="-26662431#5"/>
    <trip id="0393" depart="32539.50" from="470247604#2" to="23115994#0"/>
    <trip id="0394" depart="32541.00" from="472616521#0" to="27073472#1"/>
    <trip id="0395" depart="32542.50" from="351537508#0" to="-34726693#1"/>
    <trip id="0396" depart="32544.00" from="25635518#0" to="25420525#0"/>
    <trip id="0397" depart="32545.50" from="-24411811#1" to="283037534"/>
    <trip id="0398" depart="32547.00" from="-28010485#0" to="16234894#1"/>
    <trip id="0399" depart="32548.50" from="-156810828#4" to="118535497"/>
    <trip id="03100" depart="32550.00" from="28010469#0" to="-26320290#2"/>
    <trip id="03101" depart="32551.50" from="26513314#1" to="-28010577#0"/>
    <trip id="03102" depart="32553.00" from="25465249#9" to="27760790#4"/>
    <trip id="03103" depart="32554.50" from="-26710691#0" to="-25734074#0"/>
    <trip id="03104" depart="32556.00" from="41937466#3" to="-351537508#2"/>
    <trip id="03105" depart="32557.50" from="27344455" to="-27440455#2"/>
    <trip id="03106" depart="32559.00" from="50113253#1" to="41937452#10"/>
    <trip id="03107" depart="32560.50" from="-26513344#4" to="28010526#3"/>
    <trip id="03108" depart="32562.00" from="-26320277#1" to="28010566#0"/>
    <trip id="03109" depart="32563.50" from="-28010448#0" to="25366413#11"/>
    <trip id="03110" depart="32565.00" from="25401614#3" to="-27720479#1"/>
    <trip id="03111" depart="32566.50" from="-470509527" to="25281498"/>
    <trip id="03112" depart="32568.00" from="27720394#1" to="-25482081#0"/>
    <trip id="03113" depart="32569.50" from="-27440572#3" to="-23111715#0"/>
    <trip id="03114" depart="32571.00" from="-25420521" to="25734074#1"/>
    <trip id="03115" depart="32572.50" from="50113253#1" to="310720097#6"/>
    <trip id="03116" depart="32574.00" from="24801372#0" to="518028890#2"/>
    <trip id="03117" depart="32575.50" from="-112023779" to="-28010570#5"/>
    <trip id="03118" depart="32577.00" from="-16230993#3" to="25355533#6"/>
    <trip id="03119" depart="32578.50" from="247751386#0" to="-28010521"/>
    <trip id="03120" depart="32580.00" from="-41551160#2" to="-25420504#8"/>
    <trip id="03121" depart="32581.50" from="25465233#3" to="26662444#0"/>
    <trip id="03122" depart="32583.00" from="28010584#1" to="28010459"/>
    <trip id="03123" depart="32584.50" from="26320244#0" to="247213979#1"/>
    <trip id="03124" depart="32586.00" from="26320277#1" to="25230359#4"/>
    <trip id="03125" depart="32587.50" from="41937459#2" to="25482106#4"/>
    <trip id="03126" depart="32589.00" from="30793355#2" to="25355533#6"/>
    <trip id="03127" depart="32590.50" from="-26320257#0" to="247208010#2"/>
    <trip id="03128" depart="32592.00" from="351534959#1" to="-247208011#0"/>
    <trip id="03129" depart="32593.50" from="50257921" to="25482083"/>
    <trip id="03130" depart="32595.00" from="25230310#3" to="28010567#3"/>
    <trip id="03131" depart="32596.50" from="-665595729#5" to="-25420541#0"/>
    <trip id="03132" depart="32598.00" from="26320258#0" to="28010498#2"/>
    <trip id="03133" depart="32599.50" from="-586701921#4" to="517326033"/>
    <trip id="03134" depart="32601.00" from="377868532#6" to="27736408#1"/>
    <trip id="03135" depart="32602.50" from="26427414#2" to="-25420525#2"/>
    <trip id="03137" depart="32605.50" from="-25775258#4" to="25775314#1"/>
    <trip id="03138" depart="32607.00" from="29019847#6" to="591743000#2"/>
    <trip id="03139" depart="32608.50" from="24371409" to="25775281#7"/>
    <trip id="03140" depart="32610.00" from="-26662463#0" to="156810744"/>
    <trip id="03141" depart="32611.50" from="26662398#2" to="-25775267#14"/>
    <trip id="03142" depart="32613.00" from="-27500497#2" to="-25734074#11"/>
    <trip id="03143" depart="32614.50" from="778015025#4" to="-27719284#3"/>
    <trip id="03144" depart="32616.00" from="-25775253" to="-157770089#1"/>
    <trip id="03145" depart="32617.50" from="-27440410#2" to="-377868534#1"/>
    <trip id="03146" depart="32619.00" from="-27500561#1" to="-27760798"/>
    <trip id="03147" depart="32620.50" from="-25482057#1" to="24445805#3"/>
    <trip id="03148" depart="32622.00" from="25775267#21" to="27500497#1"/>
    <trip id="03149" depart="32623.50" from="25401628#3" to="-16232121#19"/>
    <trip id="03150" depart="32625.00" from="-16233415#5" to="25401640#5"/>
    <trip id="03151" depart="32626.50" from="25465245#2" to="41152980#2"/>
    <trip id="03152" depart="32628.00" from="-26513280#0" to="-25482106#4"/>
    <trip id="03153" depart="32629.50" from="-25775333#3" to="622435348"/>
    <trip id="03154" depart="32631.00" from="25775281#11" to="-25482068#0"/>
    <trip id="03155" depart="32632.50" from="202761370" to="25313533#0"/>
    <trip id="03156" depart="32634.00" from="-25123910#16" to="-25775282#1"/>
    <trip id="03157" depart="32635.50" from="-17007526#1" to="-23110723"/>
    <trip id="03158" depart="32637.00" from="27718574#2" to="27500568#1"/>
    <trip id="03159" depart="32638.50" from="-25123910#14" to="287205595-AddedOnRampEdge"/>
    <trip id="03160" depart="32640.00" from="-25366432#4" to="23111085#0"/>
    <trip id="03162" depart="32643.00" from="156810843#0" to="-28010502#0"/>
    <trip id="03163" depart="32644.50" from="-24411811#16" to="28010449"/>
    <trip id="03164" depart="32646.00" from="26662417#8" to="28010567#7"/>
    <trip id="03165" depart="32647.50" from="25123907#3" to="25734063#3"/>
    <trip id="03166" depart="32649.00" from="472541435" to="377869587#6"/>
    <trip id="03167" depart="32650.50" from="592054826" to="-379316927"/>
    <trip id="03168" depart="32652.00" from="28010508#4" to="17056546#5"/>
    <trip id="03169" depart="32653.50" from="-27760794#0" to="-379316925#7"/>
    <trip id="03170" depart="32655.00" from="-25734067#2" to="-23111479#1"/>
    <trip id="03171" depart="32656.50" from="517972133#0-AddedOnRampEdge" to="38260988#2-AddedOnRampEdge"/>
    <trip id="03172" depart="32658.00" from="-28010477#2" to="27718578#2"/>
    <trip id="03173" depart="32659.50" from="-25734074#7" to="28010570#5"/>
    <trip id="03174" depart="32661.00" from="-26320254#1" to="17096089#3"/>
    <trip id="03175" depart="32662.50" from="-25465248#1" to="476958265"/>
    <trip id="03176" depart="32664.00" from="-26513347#4" to="587383103#0"/>
    <trip id="03177" depart="32665.50" from="-28010526#4" to="24411825#3"/>
    <trip id="03178" depart="32667.00" from="-28257906#7" to="17055718#5"/>
    <trip id="03179" depart="32668.50" from="25401629#3" to="-17058489#5"/>
    <trip id="03180" depart="32670.00" from="-28257906#10" to="25465212#1"/>
    <trip id="03181" depart="32671.50" from="34609041#5" to="-241501814#7"/>
    <trip id="03182" depart="32673.00" from="25465205#3" to="-25775267#9"/>
    <trip id="03183" depart="32674.50" from="26662467" to="-23236469#6"/>
    <trip id="03185" depart="32677.50" from="-24801349#2" to="613811827#0-AddedOffRampEdge"/>
    <trip id="03186" depart="32679.00" from="-16233040#7" to="658002700"/>
    <trip id="03187" depart="32680.50" from="-25775299#1" to="23115994#0"/>
    <trip id="03188" depart="32682.00" from="-26513295#1" to="-17097959#6"/>
    <trip id="03189" depart="32683.50" from="-28257906#10" to="26513344#3"/>
    <trip id="03191" depart="32686.50" from="470509531" to="25465248#13"/>
    <trip id="03192" depart="32688.00" from="-23111624#0" to="17094318#5"/>
    <trip id="03193" depart="32689.50" from="33658107#0" to="-26427396#5"/>
    <trip id="03194" depart="32691.00" from="351534955#0" to="591816723"/>
    <trip id="03195" depart="32692.50" from="27500585#2" to="351536227"/>
    <trip id="03196" depart="32694.00" from="471778450#2" to="244847757#1"/>
    <trip id="03197" depart="32695.50" from="23111073#2" to="16236580#5"/>
    <trip id="03198" depart="32697.00" from="38260974-AddedOffRampEdge" to="28010503"/>
    <trip id="03199" depart="32698.50" from="-25775362" to="-25734074#1"/>
    <trip id="03200" depart="32700.00" from="-351973620#3" to="-25775304#2"/>
    <trip id="03201" depart="32701.50" from="-23110836#3" to="-28010447#0"/>
    <trip id="03202" depart="32703.00" from="26320255#1" to="25482072#1"/>
    <trip id="03203" depart="32704.50" from="470247606" to="-26513344#0"/>
    <trip id="03204" depart="32706.00" from="470186318#0" to="25154427#3"/>
    <trip id="03205" depart="32707.50" from="-25420549#0" to="-351534957#1"/>
    <trip id="03206" depart="32709.00" from="-28010570#2" to="26662459"/>
    <trip id="03207" depart="32710.50" from="27924747#1" to="25775353#0"/>
    <trip id="03208" depart="32712.00" from="26513338#0" to="-25401629#0"/>
    <trip id="03209" depart="32713.50" from="26427394#3" to="27006738#6"/>
    <trip id="03210" depart="32715.00" from="-27440411#2" to="28010491#2"/>
    <trip id="03211" depart="32716.50" from="-26662424" to="23115994#1"/>
    <trip id="03212" depart="32718.00" from="272969844#2" to="28010529#1"/>
    <trip id="03213" depart="32719.50" from="29043116#0" to="50113244#1"/>
    <trip id="03214" depart="32721.00" from="-26320271#1" to="-156812358#3"/>
    <trip id="03215" depart="32722.50" from="210312613" to="-164512031#2"/>
    <trip id="03216" depart="32724.00" from="484588233#2" to="-379316926#5"/>
    <trip id="03217" depart="32725.50" from="26662417#0" to="-26320273#1"/>
    <trip id="03218" depart="32727.00" from="26513333#5" to="-26320250#1"/>
    <trip id="03219" depart="32728.50" from="27500557#17" to="17056758"/>
    <trip id="03220" depart="32730.00" from="-27500534#1" to="16235971#1"/>
    <trip id="03221" depart="32731.50" from="26710735#1" to="-470509521#0"/>
    <trip id="03222" depart="32733.00" from="518955259#3" to="25154425"/>
    <trip id="03223" depart="32734.50" from="-24445795#2" to="25734063#3"/>
    <trip id="03224" depart="32736.00" from="-26320290#3" to="27369585#5"/>
    <trip id="03225" depart="32737.50" from="351535220" to="17469145#7"/>
    <trip id="03226" depart="32739.00" from="17097959#6" to="-25482081#2"/>
    <trip id="03227" depart="32740.50" from="791811885#3" to="26662421#1"/>
    <trip id="03228" depart="32742.00" from="-28010433#0" to="27073482#5"/>
    <trip id="03229" depart="32743.50" from="25401654#5" to="23111066#8"/>
    <trip id="03230" depart="32745.00" from="17058489#2" to="516209079"/>
    <trip id="03231" depart="32746.50" from="-379316928#1" to="26513335#4"/>
    <trip id="03232" depart="32748.00" from="26662416#0" to="241280576#4"/>
    <trip id="03233" depart="32749.50" from="-25775254#3" to="26513348#0"/>
    <trip id="03234" depart="32751.00" from="-156804370#0" to="27500568#0"/>
    <trip id="03235" depart="32752.50" from="-26662453" to="25734077#3"/>
    <trip id="03236" depart="32754.00" from="-26320243#6" to="-27073221#2"/>
    <trip id="03237" depart="32755.50" from="303161432#2" to="476958262"/>
    <trip id="03238" depart="32757.00" from="17468879#5" to="24445795#1"/>
    <trip id="03240" depart="32760.00" from="-25775254#2" to="26427401#1"/>
    <trip id="03241" depart="32761.50" from="-26513305#3" to="23236825#1"/>
    <trip id="03242" depart="32763.00" from="26662425" to="16966154#5"/>
    <trip id="03243" depart="32764.50" from="28010525#2" to="50275729"/>
    <trip id="03244" depart="32766.00" from="25482068#4" to="24371425#1"/>
    <trip id="03245" depart="32767.50" from="25420557#0" to="27718578#1"/>
    <trip id="03246" depart="32769.00" from="26513333#1" to="26513354#1"/>
    <trip id="03247" depart="32770.50" from="377869587#6" to="27440461#0"/>
    <trip id="03248" depart="32772.00" from="30793592#0" to="50113244#0"/>
    <trip id="03249" depart="32773.50" from="-40284876#1" to="-319507402#1"/>
    <trip id="03250" depart="32775.00" from="-26662452" to="41152981#5"/>
    <trip id="03251" depart="32776.50" from="-17468879#10" to="25401598"/>
    <trip id="03252" depart="32778.00" from="-26320262#0" to="-40303681"/>
    <trip id="03253" depart="32779.50" from="-25775320#0" to="26710689#0"/>
    <trip id="03254" depart="32781.00" from="23110739#6" to="25482098"/>
    <trip id="03255" depart="32782.50" from="-26513278#0" to="-25465248#9"/>
    <trip id="03256" depart="32784.00" from="-25154086#0" to="-25775257#1"/>
    <trip id="03257" depart="32785.50" from="592334651" to="24445795#1"/>
    <trip id="03258" depart="32787.00" from="-41424226#1" to="-272969845"/>
    <trip id="03259" depart="32788.50" from="226025406#2" to="-25281472#0"/>
    <trip id="03260" depart="32790.00" from="319277813#0" to="-27720162#1"/>
    <trip id="03261" depart="32791.50" from="26320261#1" to="300350422#3"/>
    <trip id="03262" depart="32793.00" from="26513286#1" to="156799724#10"/>
    <trip id="03263" depart="32794.50" from="34612477#0" to="41152981#5"/>
    <trip id="03264" depart="32796.00" from="-26513301#0" to="-27073232"/>
    <trip id="03265" depart="32797.50" from="25734065#7" to="28257906#4"/>
    <trip id="03266" depart="32799.00" from="-27500497#1" to="-26662398#2"/>
    <trip id="03267" depart="32800.50" from="-25775296#0" to="-104101429#1"/>
    <trip id="03268" depart="32802.00" from="25465262" to="379316926#4"/>
    <trip id="03269" depart="32803.50" from="-26662395#5" to="26513352#3"/>
    <trip id="03270" depart="32805.00" from="-29043347#2" to="25401626#1"/>
    <trip id="03271" depart="32806.50" from="27500497#0" to="25775292#3"/>
    <trip id="03272" depart="32808.00" from="17096200#4" to="27500492#6"/>
    <trip id="03273" depart="32809.50" from="-26513334#3" to="-23111080#1"/>
    <trip id="03274" depart="32811.00" from="25734058#2" to="665595730#5"/>
    <trip id="03275" depart="32812.50" from="-23111108" to="-29019823#0"/>
    <trip id="03276" depart="32814.00" from="156810841#1" to="-471523588#2"/>
    <trip id="03277" depart="32815.50" from="-25482077#2" to="25775267#22"/>
    <trip id="03278" depart="32817.00" from="17007879#3" to="-25775258#2"/>
    <trip id="03280" depart="32820.00" from="-26662395#7" to="27720004#4"/>
    <trip id="03281" depart="32821.50" from="27073591#0" to="24801349#1"/>
    <trip id="03282" depart="32823.00" from="27736408#8" to="-25734077#5"/>
    <trip id="03283" depart="32824.50" from="26513282" to="28257906#4"/>
    <trip id="03284" depart="32826.00" from="25281472#0" to="25401635#3"/>
    <trip id="03285" depart="32827.50" from="518955256" to="-28010486#2"/>
    <trip id="03286" depart="32829.00" from="-351538206#4" to="-26710730#2"/>
    <trip id="03287" depart="32830.50" from="-332419555#2" to="470509521#0"/>
    <trip id="03288" depart="32832.00" from="26320272#1" to="-26513313#1"/>
    <trip id="03289" depart="32833.50" from="243980239#3" to="-470247601#1"/>
    <trip id="03290" depart="32835.00" from="-25775277#0" to="-471778448#0"/>
    <trip id="03291" depart="32836.50" from="392659954#3" to="25734074#6"/>
    <trip id="03292" depart="32838.00" from="-27720004#1" to="-25420550#8"/>
    <trip id="03293" depart="32839.50" from="303161435#1" to="27500577#1"/>
    <trip id="03294" depart="32841.00" from="25734067#1" to="25123913#0"/>
    <trip id="03295" depart="32842.50" from="17061184#9" to="-27500557#14"/>
    <trip id="03296" depart="32844.00" from="471778454#1" to="24411825#9"/>
    <trip id="03297" depart="32845.50" from="-25775330#1" to="17006968"/>
    <trip id="03298" depart="32847.00" from="25401621#3" to="27500557#8"/>
    <trip id="03299" depart="32848.50" from="318885149#6" to="-25465204#1"/>
    <trip id="03300" depart="32850.00" from="665595730#2" to="283052784"/>
    <trip id="03301" depart="32851.50" from="-303161435#3" to="-26662398#0"/>
    <trip id="03302" depart="32853.00" from="227220003#1" to="217914480"/>
    <trip id="03303" depart="32854.50" from="-25635518#1" to="24411825#9"/>
    <trip id="03304" depart="32856.00" from="470530195#3" to="27500567#0"/>
    <trip id="03305" depart="32857.50" from="27718572#0" to="-25775284"/>
    <trip id="03306" depart="32859.00" from="-470509518" to="41937464"/>
    <trip id="03307" depart="32860.50" from="283052784" to="-26662431#5"/>
    <trip id="03308" depart="32862.00" from="-41937452#8" to="-23110739#2"/>
    <trip id="03309" depart="32863.50" from="25482082" to="25123902#1"/>
    <trip id="03310" depart="32865.00" from="25287058#1-AddedOffRampEdge" to="227245225#0"/>
    <trip id="03311" depart="32866.50" from="16966154#4" to="29043347#1"/>
    <trip id="03312" depart="32868.00" from="159767072" to="-25775294#1"/>
    <trip id="03313" depart="32869.50" from="25775289#0" to="27500492#8"/>
    <trip id="03314" depart="32871.00" from="-665595730#1" to="25465196#2"/>
    <trip id="03315" depart="32872.50" from="-25482085" to="17007350#0"/>
    <trip id="03316" depart="32874.00" from="104101429#0" to="377869587#5"/>
    <trip id="03317" depart="32875.50" from="-26662409#1" to="-25775267#17"/>
    <trip id="03318" depart="32877.00" from="-24801361#1" to="-26320290#3"/>
    <trip id="03319" depart="32878.50" from="41556548#0" to="28257906#6"/>
    <trip id="03320" depart="32880.00" from="25775283#1" to="41424226#3"/>
    <trip id="03321" depart="32881.50" from="-26320268#0" to="-392330107#2"/>
    <trip id="03322" depart="32883.00" from="-355858458#4" to="470247618#1"/>
    <trip id="03323" depart="32884.50" from="-26710735#0" to="-420861219#2"/>
    <trip id="03324" depart="32886.00" from="-319507402#1" to="221134596#0"/>
    <trip id="03325" depart="32887.50" from="-26513314#2" to="26662395#5"/>
    <trip id="03326" depart="32889.00" from="16243987#1" to="25154427#3"/>
    <trip id="03327" depart="32890.50" from="25775267#21" to="25775304#1"/>
    <trip id="03328" depart="32892.00" from="-26320250#0" to="25420550#8"/>
    <trip id="03330" depart="32895.00" from="-28010493#3" to="26710731#3"/>
    <trip id="03331" depart="32896.50" from="157770087#0" to="-16235199#1"/>
    <trip id="03332" depart="32898.00" from="25401651#2" to="28257919#7"/>
    <trip id="03333" depart="32899.50" from="25401638#6" to="-749686558#4"/>
    <trip id="03334" depart="32901.00" from="392330107#2" to="25775318#1"/>
    <trip id="03335" depart="32902.50" from="665595730#1" to="-25465262"/>
    <trip id="03336" depart="32904.00" from="26427400#1" to="26662436#0"/>
    <trip id="03337" depart="32905.50" from="17056376#2" to="-25734071#0"/>
    <trip id="03338" depart="32907.00" from="778015025#0" to="-50275728#3"/>
    <trip id="03339" depart="32908.50" from="34608618" to="-17055393#1"/>
    <trip id="03340" depart="32910.00" from="-25482107#1" to="38259236#1"/>
    <trip id="03341" depart="32911.50" from="25366404-AddedOffRampEdge" to="24444098#7"/>
    <trip id="03342" depart="32913.00" from="-471778445#2" to="-27500559"/>
    <trip id="03343" depart="32914.50" from="26513305#7" to="-26513335#0"/>
    <trip id="03344" depart="32916.00" from="23111651#0" to="25366411"/>
    <trip id="03345" depart="32917.50" from="24411814#5" to="17094536#1"/>
    <trip id="03346" depart="32919.00" from="-17469145#4" to="470509533#5"/>
    <trip id="03347" depart="32920.50" from="586701936#0" to="16232121#20"/>
    <trip id="03348" depart="32922.00" from="25775351#0" to="392529596"/>
    <trip id="03349" depart="32923.50" from="25734077#0" to="193226314#0"/>
    <trip id="03350" depart="32925.00" from="27720390#8" to="17469145#8"/>
    <trip id="03351" depart="32926.50" from="16232241#5" to="26662466#2"/>
    <trip id="03352" depart="32928.00" from="25734067#6" to="23111076#0"/>
    <trip id="03353" depart="32929.50" from="25420499#4" to="28010525#3"/>
    <trip id="03354" depart="32931.00" from="471523532#1" to="25230353#2"/>
    <trip id="03355" depart="32932.50" from="26320279#0" to="17095380#1"/>
    <trip id="03356" depart="32934.00" from="-303161435#2" to="591766587#1"/>
    <trip id="03357" depart="32935.50" from="-25775351#1" to="16243987#0"/>
    <trip id="03358" depart="32937.00" from="-27719284#1" to="40301054#1"/>
    <trip id="03359" depart="32938.50" from="-28010498#8" to="25775350"/>
    <trip id="03360" depart="32940.00" from="28010498#9" to="16224701#6"/>
    <trip id="03361" depart="32941.50" from="17461769#0" to="28010582#5"/>
    <trip id="03362" depart="32943.00" from="27073221#0" to="26513323#4"/>
    <trip id="03363" depart="32944.50" from="-27760790#2" to="292979149#1-AddedOnRampEdge"/>
    <trip id="03364" depart="32946.00" from="25401626#3" to="-26662431#5"/>
    <trip id="03365" depart="32947.50" from="25420535#4" to="25775335#2"/>
    <trip id="03366" depart="32949.00" from="-351536620" to="25420550#9"/>
    <trip id="03367" depart="32950.50" from="25154100#1" to="-355858458#4"/>
    <trip id="03368" depart="32952.00" from="25775265#1" to="-26662452"/>
    <trip id="03369" depart="32953.50" from="23115994#1" to="-25734077#7"/>
    <trip id="03371" depart="32956.50" from="470247604#4" to="28010570#0"/>
    <trip id="03372" depart="32958.00" from="-24411813#0" to="-25482112#2"/>
    <trip id="03373" depart="32959.50" from="-104613682#3" to="25401644#0"/>
    <trip id="03374" depart="32961.00" from="-25775265#1" to="392653545#1"/>
    <trip id="03375" depart="32962.50" from="470247644" to="34612501#1"/>
    <trip id="03376" depart="32964.00" from="16232090#4" to="-27440573#0"/>
    <trip id="03377" depart="32965.50" from="517932039" to="-16233070#3"/>
    <trip id="03378" depart="32967.00" from="472541422" to="26320260#3"/>
    <trip id="03379" depart="32968.50" from="-24411814#14" to="-105760885#0"/>
    <trip id="03380" depart="32970.00" from="25290968#3" to="150555043#2"/>
    <trip id="03381" depart="32971.50" from="-16243938#3" to="25775320#0"/>
    <trip id="03382" depart="32973.00" from="28010435#2" to="29043116#4-AddedOffRampEdge"/>
    <trip id="03383" depart="32974.50" from="25420496#1" to="-379316923#3"/>
    <trip id="03384" depart="32976.00" from="-24411832#5" to="247208012#2"/>
    <trip id="03385" depart="32977.50" from="24411821#1" to="25482072#1"/>
    <trip id="03386" depart="32979.00" from="-25482068#0" to="-26320250#0"/>
    <trip id="03388" depart="32982.00" from="41937494#0" to="25465226#0"/>
    <trip id="03389" depart="32983.50" from="25734077#2" to="16236020#0"/>
    <trip id="03390" depart="32985.00" from="-156810944#2" to="24411832#3"/>
    <trip id="03391" depart="32986.50" from="26662417#6" to="472541447"/>
    <trip id="03392" depart="32988.00" from="-337192923#1" to="-25775267#2"/>
    <trip id="03393" depart="32989.50" from="26513341#0" to="-25281468#6"/>
    <trip id="03394" depart="32991.00" from="27720251#6" to="-25465192"/>