<?xml version="1.0" encoding="UTF-8"?>

<!-- generated on 10/02/20 17:51:41 by Eclipse SUMO duarouter Version 1.6.0
<configuration xmlns:xsi="http://www.w3.org/2001/XMLSchema-instance" xsi:noNamespaceSchemaLocation="http://sumo.dlr.de/xsd/duarouterConfiguration.xsd">

    <input>
        <net-file value="Quebec\osm.net.xml"/>
        <additional-files value="Quebec\osm.add.xml"/>
        <route-files value="Quebec\rushAM.passenger.trips.xml"/>
    </input>

    <output>
        <output-file value="Quebec\rushAM.passenger.trips.xml.tmp"/>
        <write-trips value="true"/>
    </output>

    <time>
        <begin value="23400.0"/>
        <end value="32400.0"/>
    </time>

    <report>
        <no-warnings value="true"/>
        <ignore-errors value="true"/>
        <no-step-log value="true"/>
    </report>

</configuration>
-->

<routes xmlns:xsi="http://www.w3.org/2001/XMLSchema-instance" xsi:noNamespaceSchemaLocation="http://sumo.dlr.de/xsd/routes_file.xsd">
    <trip id="020" depart="23400.00" from="25420497#2" to="-26320254#0"/>
    <trip id="021" depart="23400.30" from="-25482106#3" to="211660706#3"/>
    <trip id="022" depart="23400.60" from="16232915#3" to="-26513319#13"/>
    <trip id="023" depart="23400.90" from="156799724#8" to="28010560#0"/>
    <trip id="024" depart="23401.20" from="-25482096" to="-26320292"/>
    <trip id="025" depart="23401.50" from="-17055718#4" to="-26662450#3"/>
    <trip id="026" depart="23401.80" from="-25154426#4" to="592069584"/>
    <trip id="027" depart="23402.10" from="-29019797#2" to="657694259"/>
    <trip id="028" depart="23402.40" from="25775267#13" to="-27500569#0"/>
    <trip id="029" depart="23402.70" from="-26662395#7" to="25775335#3"/>
    <trip id="0210" depart="23403.00" from="-25482098" to="-159767072"/>
    <trip id="0211" depart="23403.30" from="27006738#4" to="25482088"/>
    <trip id="0213" depart="23403.90" from="-17095380#1" to="26662462#3"/>
    <trip id="0214" depart="23404.20" from="27719166#3" to="-665595729#1"/>
    <trip id="0215" depart="23404.50" from="-633452341#4" to="-27440572#1"/>
    <trip id="0216" depart="23404.80" from="472541425" to="337192923#1"/>
    <trip id="0217" depart="23405.10" from="-25775336#1" to="26710729#1"/>
    <trip id="0218" depart="23405.40" from="16233470#4" to="-17095262#1"/>
    <trip id="0219" depart="23405.70" from="-26427398#2" to="392440879"/>
    <trip id="0220" depart="23406.00" from="-310720097#7" to="25775304#3"/>
    <trip id="0221" depart="23406.30" from="26662450#1" to="156810874#1"/>
    <trip id="0222" depart="23406.60" from="240860999#1" to="29019823#4"/>
    <trip id="0223" depart="23406.90" from="26513308#4" to="24445797#7"/>
    <trip id="0224" depart="23407.20" from="25123910#8" to="17096799#6"/>
    <trip id="0225" depart="23407.50" from="16236580#2" to="25775287#1"/>
    <trip id="0226" depart="23407.80" from="-26662450#0" to="302399308#9"/>
    <trip id="0227" depart="23408.10" from="-28010472#0" to="-26662405#1"/>
    <trip id="0228" depart="23408.40" from="16224377#4" to="25281468#2"/>
    <trip id="0229" depart="23408.70" from="17055718#7" to="28010485#1"/>
    <trip id="0230" depart="23409.00" from="-156799727#4" to="592069583#1"/>
    <trip id="0231" depart="23409.30" from="-26513319#9" to="-26427409#0"/>
    <trip id="0232" depart="23409.60" from="25775287#2" to="-28010507#2"/>
    <trip id="0233" depart="23409.90" from="24411822" to="25734075#1"/>
    <trip id="0234" depart="23410.20" from="-24411814#10" to="26662444#1"/>
    <trip id="0235" depart="23410.50" from="-26427386#1" to="27719166#3"/>
    <trip id="0236" depart="23410.80" from="351535176#1" to="17097488#2"/>
    <trip id="0237" depart="23411.10" from="-303121078#4" to="24411817#0"/>
    <trip id="0238" depart="23411.40" from="377868538#4" to="586701931#1"/>
    <trip id="0239" depart="23411.70" from="26513277#1" to="157770087#0"/>
    <trip id="0240" depart="23412.00" from="156810838" to="26320269#7"/>
    <trip id="0241" depart="23412.30" from="-351535208" to="27500536#1"/>
    <trip id="0242" depart="23412.60" from="24444089#2" to="24472361#3"/>
    <trip id="0243" depart="23412.90" from="28010526#3" to="351536388"/>
    <trip id="0244" depart="23413.20" from="27440460#1" to="25734057#2"/>
    <trip id="0245" depart="23413.50" from="17461769#0" to="28010583#1"/>
    <trip id="0246" depart="23413.80" from="-26662450#1" to="-239609983"/>
    <trip id="0247" depart="23414.10" from="-28010562#3" to="28010473#0"/>
    <trip id="0248" depart="23414.40" from="25465249#5" to="-16234923#0"/>
    <trip id="0249" depart="23414.70" from="26662399#4" to="25465222#3"/>
    <trip id="0250" depart="23415.00" from="23110710#2" to="-17094990"/>
    <trip id="0251" depart="23415.30" from="-16232121#5" to="-24411814#1"/>
    <trip id="0252" depart="23415.60" from="323729583" to="16230993#2"/>
    <trip id="0253" depart="23415.90" from="-23116043" to="27720394#2"/>
    <trip id="0254" depart="23416.20" from="23111085#9" to="-41424226#7"/>
    <trip id="0255" depart="23416.50" from="156804366#4" to="-26513305#21"/>
    <trip id="0256" depart="23416.80" from="-17097066#2" to="27500514#2"/>
    <trip id="0257" depart="23417.10" from="34612843#0" to="-470186319#1"/>
    <trip id="0258" depart="23417.40" from="-16243938#3" to="791811886#0"/>
    <trip id="0259" depart="23417.70" from="-25465213#1" to="-592265791"/>
    <trip id="0261" depart="23418.30" from="-25775278#4" to="-27440559#0"/>
    <trip id="0262" depart="23418.60" from="17096799#1" to="25482111"/>
    <trip id="0264" depart="23419.20" from="470509529#0" to="-26513346#0"/>
    <trip id="0265" depart="23419.50" from="-26513284#2" to="-175794804#3"/>
    <trip id="0266" depart="23419.80" from="28010486#0" to="24419289#2"/>
    <trip id="0267" depart="23420.10" from="-518955257#0" to="25734063#6"/>
    <trip id="0268" depart="23420.40" from="-27500582" to="-587383103#0"/>
    <trip id="0269" depart="23420.70" from="-25775250#2" to="16244236#1"/>
    <trip id="0270" depart="23421.00" from="-302399308#3" to="25230353#3"/>
    <trip id="0271" depart="23421.30" from="319277813#1" to="27500491#0"/>
    <trip id="0272" depart="23421.60" from="25775259" to="25401639#3"/>
    <trip id="0273" depart="23421.90" from="29043133#0" to="-25775308#0"/>
    <trip id="0274" depart="23422.20" from="471778457#0" to="-25775282#5"/>
    <trip id="0275" depart="23422.50" from="345772681" to="240860995#1"/>
    <trip id="0277" depart="23423.10" from="-25482057#1" to="-29019797#3"/>
    <trip id="0278" depart="23423.40" from="28010508#0" to="-27440573#6"/>
    <trip id="0279" depart="23423.70" from="16224701#11" to="-25465248#14"/>
    <trip id="0280" depart="23424.00" from="-24445805#10" to="-25775289#0"/>
    <trip id="0281" depart="23424.30" from="-240860996#0" to="28010527#1"/>
    <trip id="0282" depart="23424.60" from="-28010469#1" to="25794906"/>
    <trip id="0283" depart="23424.90" from="26710689#1" to="-26662454#2"/>
    <trip id="0284" depart="23425.20" from="17097613#1" to="25482062#1"/>
    <trip id="0285" depart="23425.50" from="-24419307#5" to="29019823#1"/>
    <trip id="0286" depart="23425.80" from="27500559" to="25420497#0"/>
    <trip id="0287" depart="23426.10" from="17007727" to="-26427414#3"/>
    <trip id="0288" depart="23426.40" from="25465210#1" to="41937466#1"/>
    <trip id="0289" depart="23426.70" from="-27500563#0" to="25401640#2"/>
    <trip id="0290" depart="23427.00" from="-26513338#4" to="50113244#1"/>
    <trip id="0291" depart="23427.30" from="25734067#8" to="25420512"/>
    <trip id="0292" depart="23427.60" from="24411832#4" to="-26662431#5"/>
    <trip id="0293" depart="23427.90" from="470247604#2" to="23115994#0"/>
    <trip id="0294" depart="23428.20" from="472616521#0" to="27073472#1"/>
    <trip id="0295" depart="23428.50" from="351537508#0" to="-34726693#1"/>
    <trip id="0296" depart="23428.80" from="25635518#0" to="25420525#0"/>
    <trip id="0297" depart="23429.10" from="-24411811#1" to="283037534"/>
    <trip id="0298" depart="23429.40" from="-28010485#0" to="16234894#1"/>
    <trip id="0299" depart="23429.70" from="-156810828#4" to="118535497"/>
    <trip id="02100" depart="23430.00" from="28010469#0" to="-26320290#2"/>
    <trip id="02101" depart="23430.30" from="26513314#1" to="-28010577#0"/>
    <trip id="02102" depart="23430.60" from="25465249#9" to="27760790#4"/>
    <trip id="02103" depart="23430.90" from="-26710691#0" to="-25734074#0"/>
    <trip id="02104" depart="23431.20" from="41937466#3" to="-351537508#2"/>
    <trip id="02105" depart="23431.50" from="27344455" to="-27440455#2"/>
    <trip id="02106" depart="23431.80" from="50113253#1" to="41937452#10"/>
    <trip id="02107" depart="23432.10" from="-26513344#4" to="28010526#3"/>
    <trip id="02108" depart="23432.40" from="-26320277#1" to="28010566#0"/>
    <trip id="02109" depart="23432.70" from="-28010448#0" to="25366413#11"/>
    <trip id="02110" depart="23433.00" from="25401614#3" to="-27720479#1"/>
    <trip id="02111" depart="23433.30" from="-470509527" to="25281498"/>
    <trip id="02112" depart="23433.60" from="27720394#1" to="-25482081#0"/>
    <trip id="02113" depart="23433.90" from="-27440572#3" to="-23111715#0"/>
    <trip id="02114" depart="23434.20" from="-25420521" to="25734074#1"/>
    <trip id="02115" depart="23434.50" from="50113253#1" to="310720097#6"/>
    <trip id="02116" depart="23434.80" from="24801372#0" to="518028890#2"/>
    <trip id="02117" depart="23435.10" from="-112023779" to="-28010570#5"/>
    <trip id="02118" depart="23435.40" from="-16230993#3" to="25355533#6"/>
    <trip id="02119" depart="23435.70" from="247751386#0" to="-28010521"/>
    <trip id="02120" depart="23436.00" from="-41551160#2" to="-25420504#8"/>
    <trip id="02121" depart="23436.30" from="25465233#3" to="26662444#0"/>
    <trip id="02122" depart="23436.60" from="28010584#1" to="28010459"/>
    <trip id="02123" depart="23436.90" from="26320244#0" to="247213979#1"/>
    <trip id="02124" depart="23437.20" from="26320277#1" to="25230359#4"/>
    <trip id="02125" depart="23437.50" from="41937459#2" to="25482106#4"/>
    <trip id="02126" depart="23437.80" from="30793355#2" to="25355533#6"/>
    <trip id="02127" depart="23438.10" from="-26320257#0" to="247208010#2"/>
    <trip id="02128" depart="23438.40" from="351534959#1" to="-247208011#0"/>
    <trip id="02129" depart="23438.70" from="50257921" to="25482083"/>
    <trip id="02130" depart="23439.00" from="25230310#3" to="28010567#3"/>
    <trip id="02131" depart="23439.30" from="-665595729#5" to="-25420541#0"/>
    <trip id="02132" depart="23439.60" from="26320258#0" to="28010498#2"/>
    <trip id="02133" depart="23439.90" from="-586701921#4" to="517326033"/>
    <trip id="02134" depart="23440.20" from="377868532#6" to="27736408#1"/>
    <trip id="02135" depart="23440.50" from="26427414#2" to="-25420525#2"/>
    <trip id="02137" depart="23441.10" from="-25775258#4" to="25775314#1"/>
    <trip id="02138" depart="23441.40" from="29019847#6" to="591743000#2"/>
    <trip id="02139" depart="23441.70" from="24371409" to="25775281#7"/>
    <trip id="02140" depart="23442.00" from="-26662463#0" to="156810744"/>
    <trip id="02141" depart="23442.30" from="26662398#2" to="-25775267#14"/>
    <trip id="02142" depart="23442.60" from="-27500497#2" to="-25734074#11"/>
    <trip id="02143" depart="23442.90" from="778015025#4" to="-27719284#3"/>
    <trip id="02144" depart="23443.20" from="-25775253" to="-157770089#1"/>
    <trip id="02145" depart="23443.50" from="-27440410#2" to="-377868534#1"/>
    <trip id="02146" depart="23443.80" from="-27500561#1" to="-27760798"/>
    <trip id="02147" depart="23444.10" from="-25482057#1" to="24445805#3"/>
    <trip id="02148" depart="23444.40" from="25775267#21" to="27500497#1"/>
    <trip id="02149" depart="23444.70" from="25401628#3" to="-16232121#19"/>
    <trip id="02150" depart="23445.00" from="-16233415#5" to="25401640#5"/>
    <trip id="02151" depart="23445.30" from="25465245#2" to="41152980#2"/>
    <trip id="02152" depart="23445.60" from="-26513280#0" to="-25482106#4"/>
    <trip id="02153" depart="23445.90" from="-25775333#3" to="622435348"/>
    <trip id="02154" depart="23446.20" from="25775281#11" to="-25482068#0"/>
    <trip id="02155" depart="23446.50" from="202761370" to="25313533#0"/>
    <trip id="02156" depart="23446.80" from="-25123910#16" to="-25775282#1"/>
    <trip id="02157" depart="23447.10" from="-17007526#1" to="-23110723"/>
    <trip id="02158" depart="23447.40" from="27718574#2" to="27500568#1"/>
    <trip id="02159" depart="23447.70" from="-25123910#14" to="287205595-AddedOnRampEdge"/>
    <trip id="02160" depart="23448.00" from="-25366432#4" to="23111085#0"/>
    <trip id="02162" depart="23448.60" from="156810843#0" to="-28010502#0"/>
    <trip id="02163" depart="23448.90" from="-24411811#16" to="28010449"/>
    <trip id="02164" depart="23449.20" from="26662417#8" to="28010567#7"/>
    <trip id="02165" depart="23449.50" from="25123907#3" to="25734063#3"/>
    <trip id="02166" depart="23449.80" from="472541435" to="377869587#6"/>
    <trip id="02167" depart="23450.10" from="592054826" to="-379316927"/>
    <trip id="02168" depart="23450.40" from="28010508#4" to="17056546#5"/>
    <trip id="02169" depart="23450.70" from="-27760794#0" to="-379316925#7"/>
    <trip id="02170" depart="23451.00" from="-25734067#2" to="-23111479#1"/>
    <trip id="02171" depart="23451.30" from="517972133#0-AddedOnRampEdge" to="38260988#2-AddedOnRampEdge"/>
    <trip id="02172" depart="23451.60" from="-28010477#2" to="27718578#2"/>
    <trip id="02173" depart="23451.90" from="-25734074#7" to="28010570#5"/>
    <trip id="02174" depart="23452.20" from="-26320254#1" to="17096089#3"/>
    <trip id="02175" depart="23452.50" from="-25465248#1" to="476958265"/>
    <trip id="02176" depart="23452.80" from="-26513347#4" to="587383103#0"/>
    <trip id="02177" depart="23453.10" from="-28010526#4" to="24411825#3"/>
    <trip id="02178" depart="23453.40" from="-28257906#7" to="17055718#5"/>
    <trip id="02179" depart="23453.70" from="25401629#3" to="-17058489#5"/>
    <trip id="02180" depart="23454.00" from="-28257906#10" to="25465212#1"/>
    <trip id="02181" depart="23454.30" from="34609041#5" to="-241501814#7"/>
    <trip id="02182" depart="23454.60" from="25465205#3" to="-25775267#9"/>
    <trip id="02183" depart="23454.90" from="26662467" to="-23236469#6"/>
    <trip id="02185" depart="23455.50" from="-24801349#2" to="613811827#0-AddedOffRampEdge"/>
    <trip id="02186" depart="23455.80" from="-16233040#7" to="658002700"/>
    <trip id="02187" depart="23456.10" from="-25775299#1" to="23115994#0"/>
    <trip id="02188" depart="23456.40" from="-26513295#1" to="-17097959#6"/>
    <trip id="02189" depart="23456.70" from="-28257906#10" to="26513344#3"/>
    <trip id="02191" depart="23457.30" from="470509531" to="25465248#13"/>
    <trip id="02192" depart="23457.60" from="-23111624#0" to="17094318#5"/>
    <trip id="02193" depart="23457.90" from="33658107#0" to="-26427396#5"/>
    <trip id="02194" depart="23458.20" from="351534955#0" to="591816723"/>
    <trip id="02195" depart="23458.50" from="27500585#2" to="351536227"/>
    <trip id="02196" depart="23458.80" from="471778450#2" to="244847757#1"/>
    <trip id="02197" depart="23459.10" from="23111073#2" to="16236580#5"/>
    <trip id="02198" depart="23459.40" from="38260974-AddedOffRampEdge" to="28010503"/>
    <trip id="02199" depart="23459.70" from="-25775362" to="-25734074#1"/>
    <trip id="02200" depart="23460.00" from="-351973620#3" to="-25775304#2"/>
    <trip id="02201" depart="23460.30" from="-23110836#3" to="-28010447#0"/>
    <trip id="02202" depart="23460.60" from="26320255#1" to="25482072#1"/>
    <trip id="02203" depart="23460.90" from="470247606" to="-26513344#0"/>
    <trip id="02204" depart="23461.20" from="470186318#0" to="25154427#3"/>
    <trip id="02205" depart="23461.50" from="-25420549#0" to="-351534957#1"/>
    <trip id="02206" depart="23461.80" from="-28010570#2" to="26662459"/>
    <trip id="02207" depart="23462.10" from="27924747#1" to="25775353#0"/>
    <trip id="02208" depart="23462.40" from="26513338#0" to="-25401629#0"/>
    <trip id="02209" depart="23462.70" from="26427394#3" to="27006738#6"/>
    <trip id="02210" depart="23463.00" from="-27440411#2" to="28010491#2"/>
    <trip id="02211" depart="23463.30" from="-26662424" to="23115994#1"/>
    <trip id="02212" depart="23463.60" from="272969844#2" to="28010529#1"/>
    <trip id="02213" depart="23463.90" from="29043116#0" to="50113244#1"/>
    <trip id="02214" depart="23464.20" from="-26320271#1" to="-156812358#3"/>
    <trip id="02215" depart="23464.50" from="210312613" to="-164512031#2"/>
    <trip id="02216" depart="23464.80" from="484588233#2" to="-379316926#5"/>
    <trip id="02217" depart="23465.10" from="26662417#0" to="-26320273#1"/>
    <trip id="02218" depart="23465.40" from="26513333#5" to="-26320250#1"/>
    <trip id="02219" depart="23465.70" from="27500557#17" to="17056758"/>
    <trip id="02220" depart="23466.00" from="-27500534#1" to="16235971#1"/>
    <trip id="02221" depart="23466.30" from="26710735#1" to="-470509521#0"/>
    <trip id="02222" depart="23466.60" from="518955259#3" to="25154425"/>
    <trip id="02223" depart="23466.90" from="-24445795#2" to="25734063#3"/>
    <trip id="02224" depart="23467.20" from="-26320290#3" to="27369585#5"/>
    <trip id="02225" depart="23467.50" from="351535220" to="17469145#7"/>
    <trip id="02226" depart="23467.80" from="17097959#6" to="-25482081#2"/>
    <trip id="02227" depart="23468.10" from="791811885#3" to="26662421#1"/>
    <trip id="02228" depart="23468.40" from="-28010433#0" to="27073482#5"/>
    <trip id="02229" depart="23468.70" from="25401654#5" to="23111066#8"/>
    <trip id="02230" depart="23469.00" from="17058489#2" to="516209079"/>
    <trip id="02231" depart="23469.30" from="-379316928#1" to="26513335#4"/>
    <trip id="02232" depart="23469.60" from="26662416#0" to="241280576#4"/>
    <trip id="02233" depart="23469.90" from="-25775254#3" to="26513348#0"/>
    <trip id="02234" depart="23470.20" from="-156804370#0" to="27500568#0"/>
    <trip id="02235" depart="23470.50" from="-26662453" to="25734077#3"/>
    <trip id="02236" depart="23470.80" from="-26320243#6" to="-27073221#2"/>
    <trip id="02237" depart="23471.10" from="303161432#2" to="476958262"/>
    <trip id="02238" depart="23471.40" from="17468879#5" to="24445795#1"/>
    <trip id="02240" depart="23472.00" from="-25775254#2" to="26427401#1"/>
    <trip id="02241" depart="23472.30" from="-26513305#3" to="23236825#1"/>
    <trip id="02242" depart="23472.60" from="26662425" to="16966154#5"/>
    <trip id="02243" depart="23472.90" from="28010525#2" to="50275729"/>
    <trip id="02244" depart="23473.20" from="25482068#4" to="24371425#1"/>
    <trip id="02245" depart="23473.50" from="25420557#0" to="27718578#1"/>
    <trip id="02246" depart="23473.80" from="26513333#1" to="26513354#1"/>
    <trip id="02247" depart="23474.10" from="377869587#6" to="27440461#0"/>
    <trip id="02248" depart="23474.40" from="30793592#0" to="50113244#0"/>
    <trip id="02249" depart="23474.70" from="-40284876#1" to="-319507402#1"/>
    <trip id="02250" depart="23475.00" from="-26662452" to="41152981#5"/>
    <trip id="02251" depart="23475.30" from="-17468879#10" to="25401598"/>
    <trip id="02252" depart="23475.60" from="-26320262#0" to="-40303681"/>
    <trip id="02253" depart="23475.90" from="-25775320#0" to="26710689#0"/>
    <trip id="02254" depart="23476.20" from="23110739#6" to="25482098"/>
    <trip id="02255" depart="23476.50" from="-26513278#0" to="-25465248#9"/>
    <trip id="02256" depart="23476.80" from="-25154086#0" to="-25775257#1"/>
    <trip id="02257" depart="23477.10" from="592334651" to="24445795#1"/>
    <trip id="02258" depart="23477.40" from="-41424226#1" to="-272969845"/>
    <trip id="02259" depart="23477.70" from="226025406#2" to="-25281472#0"/>
    <trip id="02260" depart="23478.00" from="319277813#0" to="-27720162#1"/>
    <trip id="02261" depart="23478.30" from="26320261#1" to="300350422#3"/>
    <trip id="02262" depart="23478.60" from="26513286#1" to="156799724#10"/>
    <trip id="02263" depart="23478.90" from="34612477#0" to="41152981#5"/>
    <trip id="02264" depart="23479.20" from="-26513301#0" to="-27073232"/>
    <trip id="02265" depart="23479.50" from="25734065#7" to="28257906#4"/>
    <trip id="02266" depart="23479.80" from="-27500497#1" to="-26662398#2"/>
    <trip id="02267" depart="23480.10" from="-25775296#0" to="-104101429#1"/>
    <trip id="02268" depart="23480.40" from="25465262" to="379316926#4"/>
    <trip id="02269" depart="23480.70" from="-26662395#5" to="26513352#3"/>
    <trip id="02270" depart="23481.00" from="-29043347#2" to="25401626#1"/>
    <trip id="02271" depart="23481.30" from="27500497#0" to="25775292#3"/>
    <trip id="02272" depart="23481.60" from="17096200#4" to="27500492#6"/>
    <trip id="02273" depart="23481.90" from="-26513334#3" to="-23111080#1"/>
    <trip id="02274" depart="23482.20" from="25734058#2" to="665595730#5"/>
    <trip id="02275" depart="23482.50" from="-23111108" to="-29019823#0"/>
    <trip id="02276" depart="23482.80" from="156810841#1" to="-471523588#2"/>
    <trip id="02277" depart="23483.10" from="-25482077#2" to="25775267#22"/>
    <trip id="02278" depart="23483.40" from="17007879#3" to="-25775258#2"/>
    <trip id="02280" depart="23484.00" from="-26662395#7" to="27720004#4"/>
    <trip id="02281" depart="23484.30" from="27073591#0" to="24801349#1"/>
    <trip id="02282" depart="23484.60" from="27736408#8" to="-25734077#5"/>
    <trip id="02283" depart="23484.90" from="26513282" to="28257906#4"/>
    <trip id="02284" depart="23485.20" from="25281472#0" to="25401635#3"/>
    <trip id="02285" depart="23485.50" from="518955256" to="-28010486#2"/>
    <trip id="02286" depart="23485.80" from="-351538206#4" to="-26710730#2"/>
    <trip id="02287" depart="23486.10" from="-332419555#2" to="470509521#0"/>
    <trip id="02288" depart="23486.40" from="26320272#1" to="-26513313#1"/>
    <trip id="02289" depart="23486.70" from="243980239#3" to="-470247601#1"/>
    <trip id="02290" depart="23487.00" from="-25775277#0" to="-471778448#0"/>
    <trip id="02291" depart="23487.30" from="392659954#3" to="25734074#6"/>
    <trip id="02292" depart="23487.60" from="-27720004#1" to="-25420550#8"/>
    <trip id="02293" depart="23487.90" from="303161435#1" to="27500577#1"/>
    <trip id="02294" depart="23488.20" from="25734067#1" to="25123913#0"/>
    <trip id="02295" depart="23488.50" from="17061184#9" to="-27500557#14"/>
    <trip id="02296" depart="23488.80" from="471778454#1" to="24411825#9"/>
    <trip id="02297" depart="23489.10" from="-25775330#1" to="17006968"/>
    <trip id="02298" depart="23489.40" from="25401621#3" to="27500557#8"/>
    <trip id="02299" depart="23489.70" from="318885149#6" to="-25465204#1"/>
    <trip id="02300" depart="23490.00" from="665595730#2" to="283052784"/>
    <trip id="02301" depart="23490.30" from="-303161435#3" to="-26662398#0"/>
    <trip id="02302" depart="23490.60" from="227220003#1" to="217914480"/>
    <trip id="02303" depart="23490.90" from="-25635518#1" to="24411825#9"/>
    <trip id="02304" depart="23491.20" from="470530195#3" to="27500567#0"/>
    <trip id="02305" depart="23491.50" from="27718572#0" to="-25775284"/>
    <trip id="02306" depart="23491.80" from="-470509518" to="41937464"/>
    <trip id="02307" depart="23492.10" from="283052784" to="-26662431#5"/>
    <trip id="02308" depart="23492.40" from="-41937452#8" to="-23110739#2"/>
    <trip id="02309" depart="23492.70" from="25482082" to="25123902#1"/>
    <trip id="02310" depart="23493.00" from="25287058#1-AddedOffRampEdge" to="227245225#0"/>
    <trip id="02311" depart="23493.30" from="16966154#4" to="29043347#1"/>
    <trip id="02312" depart="23493.60" from="159767072" to="-25775294#1"/>
    <trip id="02313" depart="23493.90" from="25775289#0" to="27500492#8"/>
    <trip id="02314" depart="23494.20" from="-665595730#1" to="25465196#2"/>
    <trip id="02315" depart="23494.50" from="-25482085" to="17007350#0"/>
    <trip id="02316" depart="23494.80" from="104101429#0" to="377869587#5"/>
    <trip id="02317" depart="23495.10" from="-26662409#1" to="-25775267#17"/>
    <trip id="02318" depart="23495.40" from="-24801361#1" to="-26320290#3"/>
    <trip id="02319" depart="23495.70" from="41556548#0" to="28257906#6"/>
    <trip id="02320" depart="23496.00" from="25775283#1" to="41424226#3"/>
    <trip id="02321" depart="23496.30" from="-26320268#0" to="-392330107#2"/>
    <trip id="02322" depart="23496.60" from="-355858458#4" to="470247618#1"/>
    <trip id="02323" depart="23496.90" from="-26710735#0" to="-420861219#2"/>
    <trip id="02324" depart="23497.20" from="-319507402#1" to="221134596#0"/>
    <trip id="02325" depart="23497.50" from="-26513314#2" to="26662395#5"/>
    <trip id="02326" depart="23497.80" from="16243987#1" to="25154427#3"/>
    <trip id="02327" depart="23498.10" from="25775267#21" to="25775304#1"/>
    <trip id="02328" depart="23498.40" from="-26320250#0" to="25420550#8"/>
    <trip id="02330" depart="23499.00" from="-28010493#3" to="26710731#3"/>
    <trip id="02331" depart="23499.30" from="157770087#0" to="-16235199#1"/>
    <trip id="02332" depart="23499.60" from="25401651#2" to="28257919#7"/>
    <trip id="02333" depart="23499.90" from="25401638#6" to="-749686558#4"/>
    <trip id="02334" depart="23500.20" from="392330107#2" to="25775318#1"/>
    <trip id="02335" depart="23500.50" from="665595730#1" to="-25465262"/>
    <trip id="02336" depart="23500.80" from="26427400#1" to="26662436#0"/>
    <trip id="02337" depart="23501.10" from="17056376#2" to="-25734071#0"/>
    <trip id="02338" depart="23501.40" from="778015025#0" to="-50275728#3"/>
    <trip id="02339" depart="23501.70" from="34608618" to="-17055393#1"/>
    <trip id="02340" depart="23502.00" from="-25482107#1" to="38259236#1"/>
    <trip id="02341" depart="23502.30" from="25366404-AddedOffRampEdge" to="24444098#7"/>
    <trip id="02342" depart="23502.60" from="-471778445#2" to="-27500559"/>
    <trip id="02343" depart="23502.90" from="26513305#7" to="-26513335#0"/>
    <trip id="02344" depart="23503.20" from="23111651#0" to="25366411"/>
    <trip id="02345" depart="23503.50" from="24411814#5" to="17094536#1"/>
    <trip id="02346" depart="23503.80" from="-17469145#4" to="470509533#5"/>
    <trip id="02347" depart="23504.10" from="586701936#0" to="16232121#20"/>
    <trip id="02348" depart="23504.40" from="25775351#0" to="392529596"/>
    <trip id="02349" depart="23504.70" from="25734077#0" to="193226314#0"/>
    <trip id="02350" depart="23505.00" from="27720390#8" to="17469145#8"/>
    <trip id="02351" depart="23505.30" from="16232241#5" to="26662466#2"/>
    <trip id="02352" depart="23505.60" from="25734067#6" to="23111076#0"/>
    <trip id="02353" depart="23505.90" from="25420499#4" to="28010525#3"/>
    <trip id="02354" depart="23506.20" from="471523532#1" to="25230353#2"/>
    <trip id="02355" depart="23506.50" from="26320279#0" to="17095380#1"/>
    <trip id="02356" depart="23506.80" from="-303161435#2" to="591766587#1"/>
    <trip id="02357" depart="23507.10" from="-25775351#1" to="16243987#0"/>
    <trip id="02358" depart="23507.40" from="-27719284#1" to="40301054#1"/>
    <trip id="02359" depart="23507.70" from="-28010498#8" to="25775350"/>
    <trip id="02360" depart="23508.00" from="28010498#9" to="16224701#6"/>
    <trip id="02361" depart="23508.30" from="17461769#0" to="28010582#5"/>
    <trip id="02362" depart="23508.60" from="27073221#0" to="26513323#4"/>
    <trip id="02363" depart="23508.90" from="-27760790#2" to="292979149#1-AddedOnRampEdge"/>
    <trip id="02364" depart="23509.20" from="25401626#3" to="-26662431#5"/>
    <trip id="02365" depart="23509.50" from="25420535#4" to="25775335#2"/>
    <trip id="02366" depart="23509.80" from="-351536620" to="25420550#9"/>
    <trip id="02367" depart="23510.10" from="25154100#1" to="-355858458#4"/>
    <trip id="02368" depart="23510.40" from="25775265#1" to="-26662452"/>
    <trip id="02369" depart="23510.70" from="23115994#1" to="-25734077#7"/>
    <trip id="02371" depart="23511.30" from="470247604#4" to="28010570#0"/>
    <trip id="02372" depart="23511.60" from="-24411813#0" to="-25482112#2"/>
    <trip id="02373" depart="23511.90" from="-104613682#3" to="25401644#0"/>
    <trip id="02374" depart="23512.20" from="-25775265#1" to="392653545#1"/>
    <trip id="02375" depart="23512.50" from="470247644" to="34612501#1"/>
    <trip id="02376" depart="23512.80" from="16232090#4" to="-27440573#0"/>
    <trip id="02377" depart="23513.10" from="517932039" to="-16233070#3"/>
    <trip id="02378" depart="23513.40" from="472541422" to="26320260#3"/>
    <trip id="02379" depart="23513.70" from="-24411814#14" to="-105760885#0"/>
    <trip id="02380" depart="23514.00" from="25290968#3" to="150555043#2"/>
    <trip id="02381" depart="23514.30" from="-16243938#3" to="25775320#0"/>
    <trip id="02382" depart="23514.60" from="28010435#2" to="29043116#4-AddedOffRampEdge"/>
    <trip id="02383" depart="23514.90" from="25420496#1" to="-379316923#3"/>
    <trip id="02384" depart="23515.20" from="-24411832#5" to="247208012#2"/>
    <trip id="02385" depart="23515.50" from="24411821#1" to="25482072#1"/>
    <trip id="02386" depart="23515.80" from="-25482068#0" to="-26320250#0"/>
    <trip id="02388" depart="23516.40" from="41937494#0" to="25465226#0"/>
    <trip id="02389" depart="23516.70" from="25734077#2" to="16236020#0"/>
    <trip id="02390" depart="23517.00" from="-156810944#2" to="24411832#3"/>
    <trip id="02391" depart="23517.30" from="26662417#6" to="472541447"/>
    <trip id="02392" depart="23517.60" from="-337192923#1" to="-25775267#2"/>
    <trip id="02393" depart="23517.90" from="26513341#0" to="-25281468#6"/>
    <trip id="02394" depart="23518.20" from="27720251#6" to="-25465192"/>