<additional>
	<vType id="vehID" vClass="passenger"/>
</additional>