<?xml version="1.0" encoding="UTF-8"?>

<!-- generated on 10/02/20 18:06:15 by Eclipse SUMO duarouter Version 1.6.0
<configuration xmlns:xsi="http://www.w3.org/2001/XMLSchema-instance" xsi:noNamespaceSchemaLocation="http://sumo.dlr.de/xsd/duarouterConfiguration.xsd">

    <input>
        <net-file value="Quebec\osm.net.xml"/>
        <additional-files value="Quebec\osm.add.xml"/>
        <route-files value="Quebec\nightPM.passenger.trips.xml"/>
    </input>

    <output>
        <output-file value="Quebec\nightPM.passenger.trips.xml.tmp"/>
        <write-trips value="true"/>
    </output>

    <time>
        <begin value="64800.0"/>
        <end value="82800.0"/>
    </time>

    <report>
        <no-warnings value="true"/>
        <ignore-errors value="true"/>
        <no-step-log value="true"/>
    </report>

</configuration>
-->

<routes xmlns:xsi="http://www.w3.org/2001/XMLSchema-instance" xsi:noNamespaceSchemaLocation="http://sumo.dlr.de/xsd/routes_file.xsd">
    <trip id="050" depart="64800.00" from="25420497#2" to="-26320254#0"/>
    <trip id="051" depart="64801.50" from="-25482106#3" to="211660706#3"/>
    <trip id="052" depart="64803.00" from="16232915#3" to="-26513319#13"/>
    <trip id="053" depart="64804.50" from="156799724#8" to="28010560#0"/>
    <trip id="054" depart="64806.00" from="-25482096" to="-26320292"/>
    <trip id="055" depart="64807.50" from="-17055718#4" to="-26662450#3"/>
    <trip id="056" depart="64809.00" from="-25154426#4" to="592069584"/>
    <trip id="057" depart="64810.50" from="-29019797#2" to="657694259"/>
    <trip id="058" depart="64812.00" from="25775267#13" to="-27500569#0"/>
    <trip id="059" depart="64813.50" from="-26662395#7" to="25775335#3"/>
    <trip id="0510" depart="64815.00" from="-25482098" to="-159767072"/>
    <trip id="0511" depart="64816.50" from="27006738#4" to="25482088"/>
    <trip id="0513" depart="64819.50" from="-17095380#1" to="26662462#3"/>
    <trip id="0514" depart="64821.00" from="27719166#3" to="-665595729#1"/>
    <trip id="0515" depart="64822.50" from="-633452341#4" to="-27440572#1"/>
    <trip id="0516" depart="64824.00" from="472541425" to="337192923#1"/>
    <trip id="0517" depart="64825.50" from="-25775336#1" to="26710729#1"/>
    <trip id="0518" depart="64827.00" from="16233470#4" to="-17095262#1"/>
    <trip id="0519" depart="64828.50" from="-26427398#2" to="392440879"/>
    <trip id="0520" depart="64830.00" from="-310720097#7" to="25775304#3"/>
    <trip id="0521" depart="64831.50" from="26662450#1" to="156810874#1"/>
    <trip id="0522" depart="64833.00" from="240860999#1" to="29019823#4"/>
    <trip id="0523" depart="64834.50" from="26513308#4" to="24445797#7"/>
    <trip id="0524" depart="64836.00" from="25123910#8" to="17096799#6"/>
    <trip id="0525" depart="64837.50" from="16236580#2" to="25775287#1"/>
    <trip id="0526" depart="64839.00" from="-26662450#0" to="302399308#9"/>
    <trip id="0527" depart="64840.50" from="-28010472#0" to="-26662405#1"/>
    <trip id="0528" depart="64842.00" from="16224377#4" to="25281468#2"/>
    <trip id="0529" depart="64843.50" from="17055718#7" to="28010485#1"/>
    <trip id="0530" depart="64845.00" from="-156799727#4" to="592069583#1"/>
    <trip id="0531" depart="64846.50" from="-26513319#9" to="-26427409#0"/>
    <trip id="0532" depart="64848.00" from="25775287#2" to="-28010507#2"/>
    <trip id="0533" depart="64849.50" from="24411822" to="25734075#1"/>
    <trip id="0534" depart="64851.00" from="-24411814#10" to="26662444#1"/>
    <trip id="0535" depart="64852.50" from="-26427386#1" to="27719166#3"/>
    <trip id="0536" depart="64854.00" from="351535176#1" to="17097488#2"/>
    <trip id="0537" depart="64855.50" from="-303121078#4" to="24411817#0"/>
    <trip id="0538" depart="64857.00" from="377868538#4" to="586701931#1"/>
    <trip id="0539" depart="64858.50" from="26513277#1" to="157770087#0"/>
    <trip id="0540" depart="64860.00" from="156810838" to="26320269#7"/>
    <trip id="0541" depart="64861.50" from="-351535208" to="27500536#1"/>
    <trip id="0542" depart="64863.00" from="24444089#2" to="24472361#3"/>
    <trip id="0543" depart="64864.50" from="28010526#3" to="351536388"/>
    <trip id="0544" depart="64866.00" from="27440460#1" to="25734057#2"/>
    <trip id="0545" depart="64867.50" from="17461769#0" to="28010583#1"/>
    <trip id="0546" depart="64869.00" from="-26662450#1" to="-239609983"/>
    <trip id="0547" depart="64870.50" from="-28010562#3" to="28010473#0"/>
    <trip id="0548" depart="64872.00" from="25465249#5" to="-16234923#0"/>
    <trip id="0549" depart="64873.50" from="26662399#4" to="25465222#3"/>
    <trip id="0550" depart="64875.00" from="23110710#2" to="-17094990"/>
    <trip id="0551" depart="64876.50" from="-16232121#5" to="-24411814#1"/>
    <trip id="0552" depart="64878.00" from="323729583" to="16230993#2"/>
    <trip id="0553" depart="64879.50" from="-23116043" to="27720394#2"/>
    <trip id="0554" depart="64881.00" from="23111085#9" to="-41424226#7"/>
    <trip id="0555" depart="64882.50" from="156804366#4" to="-26513305#21"/>
    <trip id="0556" depart="64884.00" from="-17097066#2" to="27500514#2"/>
    <trip id="0557" depart="64885.50" from="34612843#0" to="-470186319#1"/>
    <trip id="0558" depart="64887.00" from="-16243938#3" to="791811886#0"/>
    <trip id="0559" depart="64888.50" from="-25465213#1" to="-592265791"/>
    <trip id="0561" depart="64891.50" from="-25775278#4" to="-27440559#0"/>
    <trip id="0562" depart="64893.00" from="17096799#1" to="25482111"/>
    <trip id="0564" depart="64896.00" from="470509529#0" to="-26513346#0"/>
    <trip id="0565" depart="64897.50" from="-26513284#2" to="-175794804#3"/>
    <trip id="0566" depart="64899.00" from="28010486#0" to="24419289#2"/>
    <trip id="0567" depart="64900.50" from="-518955257#0" to="25734063#6"/>
    <trip id="0568" depart="64902.00" from="-27500582" to="-587383103#0"/>
    <trip id="0569" depart="64903.50" from="-25775250#2" to="16244236#1"/>
    <trip id="0570" depart="64905.00" from="-302399308#3" to="25230353#3"/>
    <trip id="0571" depart="64906.50" from="319277813#1" to="27500491#0"/>
    <trip id="0572" depart="64908.00" from="25775259" to="25401639#3"/>
    <trip id="0573" depart="64909.50" from="29043133#0" to="-25775308#0"/>
    <trip id="0574" depart="64911.00" from="471778457#0" to="-25775282#5"/>
    <trip id="0575" depart="64912.50" from="345772681" to="240860995#1"/>
    <trip id="0577" depart="64915.50" from="-25482057#1" to="-29019797#3"/>
    <trip id="0578" depart="64917.00" from="28010508#0" to="-27440573#6"/>
    <trip id="0579" depart="64918.50" from="16224701#11" to="-25465248#14"/>
    <trip id="0580" depart="64920.00" from="-24445805#10" to="-25775289#0"/>
    <trip id="0581" depart="64921.50" from="-240860996#0" to="28010527#1"/>
    <trip id="0582" depart="64923.00" from="-28010469#1" to="25794906"/>
    <trip id="0583" depart="64924.50" from="26710689#1" to="-26662454#2"/>
    <trip id="0584" depart="64926.00" from="17097613#1" to="25482062#1"/>
    <trip id="0585" depart="64927.50" from="-24419307#5" to="29019823#1"/>
    <trip id="0586" depart="64929.00" from="27500559" to="25420497#0"/>
    <trip id="0587" depart="64930.50" from="17007727" to="-26427414#3"/>
    <trip id="0588" depart="64932.00" from="25465210#1" to="41937466#1"/>
    <trip id="0589" depart="64933.50" from="-27500563#0" to="25401640#2"/>
    <trip id="0590" depart="64935.00" from="-26513338#4" to="50113244#1"/>
    <trip id="0591" depart="64936.50" from="25734067#8" to="25420512"/>
    <trip id="0592" depart="64938.00" from="24411832#4" to="-26662431#5"/>
    <trip id="0593" depart="64939.50" from="470247604#2" to="23115994#0"/>
    <trip id="0594" depart="64941.00" from="472616521#0" to="27073472#1"/>
    <trip id="0595" depart="64942.50" from="351537508#0" to="-34726693#1"/>
    <trip id="0596" depart="64944.00" from="25635518#0" to="25420525#0"/>
    <trip id="0597" depart="64945.50" from="-24411811#1" to="283037534"/>
    <trip id="0598" depart="64947.00" from="-28010485#0" to="16234894#1"/>
    <trip id="0599" depart="64948.50" from="-156810828#4" to="118535497"/>
    <trip id="05100" depart="64950.00" from="28010469#0" to="-26320290#2"/>
    <trip id="05101" depart="64951.50" from="26513314#1" to="-28010577#0"/>
    <trip id="05102" depart="64953.00" from="25465249#9" to="27760790#4"/>
    <trip id="05103" depart="64954.50" from="-26710691#0" to="-25734074#0"/>
    <trip id="05104" depart="64956.00" from="41937466#3" to="-351537508#2"/>
    <trip id="05105" depart="64957.50" from="27344455" to="-27440455#2"/>
    <trip id="05106" depart="64959.00" from="50113253#1" to="41937452#10"/>
    <trip id="05107" depart="64960.50" from="-26513344#4" to="28010526#3"/>
    <trip id="05108" depart="64962.00" from="-26320277#1" to="28010566#0"/>
    <trip id="05109" depart="64963.50" from="-28010448#0" to="25366413#11"/>
    <trip id="05110" depart="64965.00" from="25401614#3" to="-27720479#1"/>
    <trip id="05111" depart="64966.50" from="-470509527" to="25281498"/>
    <trip id="05112" depart="64968.00" from="27720394#1" to="-25482081#0"/>
    <trip id="05113" depart="64969.50" from="-27440572#3" to="-23111715#0"/>
    <trip id="05114" depart="64971.00" from="-25420521" to="25734074#1"/>
    <trip id="05115" depart="64972.50" from="50113253#1" to="310720097#6"/>
    <trip id="05116" depart="64974.00" from="24801372#0" to="518028890#2"/>
    <trip id="05117" depart="64975.50" from="-112023779" to="-28010570#5"/>
    <trip id="05118" depart="64977.00" from="-16230993#3" to="25355533#6"/>
    <trip id="05119" depart="64978.50" from="247751386#0" to="-28010521"/>
    <trip id="05120" depart="64980.00" from="-41551160#2" to="-25420504#8"/>
    <trip id="05121" depart="64981.50" from="25465233#3" to="26662444#0"/>
    <trip id="05122" depart="64983.00" from="28010584#1" to="28010459"/>
    <trip id="05123" depart="64984.50" from="26320244#0" to="247213979#1"/>
    <trip id="05124" depart="64986.00" from="26320277#1" to="25230359#4"/>
    <trip id="05125" depart="64987.50" from="41937459#2" to="25482106#4"/>
    <trip id="05126" depart="64989.00" from="30793355#2" to="25355533#6"/>
    <trip id="05127" depart="64990.50" from="-26320257#0" to="247208010#2"/>
    <trip id="05128" depart="64992.00" from="351534959#1" to="-247208011#0"/>
    <trip id="05129" depart="64993.50" from="50257921" to="25482083"/>
    <trip id="05130" depart="64995.00" from="25230310#3" to="28010567#3"/>
    <trip id="05131" depart="64996.50" from="-665595729#5" to="-25420541#0"/>
    <trip id="05132" depart="64998.00" from="26320258#0" to="28010498#2"/>
    <trip id="05133" depart="64999.50" from="-586701921#4" to="517326033"/>
    <trip id="05134" depart="65001.00" from="377868532#6" to="27736408#1"/>
    <trip id="05135" depart="65002.50" from="26427414#2" to="-25420525#2"/>
    <trip id="05137" depart="65005.50" from="-25775258#4" to="25775314#1"/>
    <trip id="05138" depart="65007.00" from="29019847#6" to="591743000#2"/>
    <trip id="05139" depart="65008.50" from="24371409" to="25775281#7"/>
    <trip id="05140" depart="65010.00" from="-26662463#0" to="156810744"/>
    <trip id="05141" depart="65011.50" from="26662398#2" to="-25775267#14"/>
    <trip id="05142" depart="65013.00" from="-27500497#2" to="-25734074#11"/>
    <trip id="05143" depart="65014.50" from="778015025#4" to="-27719284#3"/>
    <trip id="05144" depart="65016.00" from="-25775253" to="-157770089#1"/>
    <trip id="05145" depart="65017.50" from="-27440410#2" to="-377868534#1"/>
    <trip id="05146" depart="65019.00" from="-27500561#1" to="-27760798"/>
    <trip id="05147" depart="65020.50" from="-25482057#1" to="24445805#3"/>
    <trip id="05148" depart="65022.00" from="25775267#21" to="27500497#1"/>
    <trip id="05149" depart="65023.50" from="25401628#3" to="-16232121#19"/>
    <trip id="05150" depart="65025.00" from="-16233415#5" to="25401640#5"/>
    <trip id="05151" depart="65026.50" from="25465245#2" to="41152980#2"/>
    <trip id="05152" depart="65028.00" from="-26513280#0" to="-25482106#4"/>
    <trip id="05153" depart="65029.50" from="-25775333#3" to="622435348"/>
    <trip id="05154" depart="65031.00" from="25775281#11" to="-25482068#0"/>
    <trip id="05155" depart="65032.50" from="202761370" to="25313533#0"/>
    <trip id="05156" depart="65034.00" from="-25123910#16" to="-25775282#1"/>
    <trip id="05157" depart="65035.50" from="-17007526#1" to="-23110723"/>
    <trip id="05158" depart="65037.00" from="27718574#2" to="27500568#1"/>
    <trip id="05159" depart="65038.50" from="-25123910#14" to="287205595-AddedOnRampEdge"/>
    <trip id="05160" depart="65040.00" from="-25366432#4" to="23111085#0"/>
    <trip id="05162" depart="65043.00" from="156810843#0" to="-28010502#0"/>
    <trip id="05163" depart="65044.50" from="-24411811#16" to="28010449"/>
    <trip id="05164" depart="65046.00" from="26662417#8" to="28010567#7"/>
    <trip id="05165" depart="65047.50" from="25123907#3" to="25734063#3"/>
    <trip id="05166" depart="65049.00" from="472541435" to="377869587#6"/>
    <trip id="05167" depart="65050.50" from="592054826" to="-379316927"/>
    <trip id="05168" depart="65052.00" from="28010508#4" to="17056546#5"/>
    <trip id="05169" depart="65053.50" from="-27760794#0" to="-379316925#7"/>
    <trip id="05170" depart="65055.00" from="-25734067#2" to="-23111479#1"/>
    <trip id="05171" depart="65056.50" from="517972133#0-AddedOnRampEdge" to="38260988#2-AddedOnRampEdge"/>
    <trip id="05172" depart="65058.00" from="-28010477#2" to="27718578#2"/>
    <trip id="05173" depart="65059.50" from="-25734074#7" to="28010570#5"/>
    <trip id="05174" depart="65061.00" from="-26320254#1" to="17096089#3"/>
    <trip id="05175" depart="65062.50" from="-25465248#1" to="476958265"/>
    <trip id="05176" depart="65064.00" from="-26513347#4" to="587383103#0"/>
    <trip id="05177" depart="65065.50" from="-28010526#4" to="24411825#3"/>
    <trip id="05178" depart="65067.00" from="-28257906#7" to="17055718#5"/>
    <trip id="05179" depart="65068.50" from="25401629#3" to="-17058489#5"/>
    <trip id="05180" depart="65070.00" from="-28257906#10" to="25465212#1"/>
    <trip id="05181" depart="65071.50" from="34609041#5" to="-241501814#7"/>
    <trip id="05182" depart="65073.00" from="25465205#3" to="-25775267#9"/>
    <trip id="05183" depart="65074.50" from="26662467" to="-23236469#6"/>
    <trip id="05185" depart="65077.50" from="-24801349#2" to="613811827#0-AddedOffRampEdge"/>
    <trip id="05186" depart="65079.00" from="-16233040#7" to="658002700"/>
    <trip id="05187" depart="65080.50" from="-25775299#1" to="23115994#0"/>
    <trip id="05188" depart="65082.00" from="-26513295#1" to="-17097959#6"/>
    <trip id="05189" depart="65083.50" from="-28257906#10" to="26513344#3"/>
    <trip id="05191" depart="65086.50" from="470509531" to="25465248#13"/>
    <trip id="05192" depart="65088.00" from="-23111624#0" to="17094318#5"/>
    <trip id="05193" depart="65089.50" from="33658107#0" to="-26427396#5"/>
    <trip id="05194" depart="65091.00" from="351534955#0" to="591816723"/>
    <trip id="05195" depart="65092.50" from="27500585#2" to="351536227"/>
    <trip id="05196" depart="65094.00" from="471778450#2" to="244847757#1"/>
    <trip id="05197" depart="65095.50" from="23111073#2" to="16236580#5"/>
    <trip id="05198" depart="65097.00" from="38260974-AddedOffRampEdge" to="28010503"/>
    <trip id="05199" depart="65098.50" from="-25775362" to="-25734074#1"/>
    <trip id="05200" depart="65100.00" from="-351973620#3" to="-25775304#2"/>
    <trip id="05201" depart="65101.50" from="-23110836#3" to="-28010447#0"/>
    <trip id="05202" depart="65103.00" from="26320255#1" to="25482072#1"/>
    <trip id="05203" depart="65104.50" from="470247606" to="-26513344#0"/>
    <trip id="05204" depart="65106.00" from="470186318#0" to="25154427#3"/>
    <trip id="05205" depart="65107.50" from="-25420549#0" to="-351534957#1"/>
    <trip id="05206" depart="65109.00" from="-28010570#2" to="26662459"/>
    <trip id="05207" depart="65110.50" from="27924747#1" to="25775353#0"/>
    <trip id="05208" depart="65112.00" from="26513338#0" to="-25401629#0"/>
    <trip id="05209" depart="65113.50" from="26427394#3" to="27006738#6"/>
    <trip id="05210" depart="65115.00" from="-27440411#2" to="28010491#2"/>
    <trip id="05211" depart="65116.50" from="-26662424" to="23115994#1"/>
    <trip id="05212" depart="65118.00" from="272969844#2" to="28010529#1"/>
    <trip id="05213" depart="65119.50" from="29043116#0" to="50113244#1"/>
    <trip id="05214" depart="65121.00" from="-26320271#1" to="-156812358#3"/>
    <trip id="05215" depart="65122.50" from="210312613" to="-164512031#2"/>
    <trip id="05216" depart="65124.00" from="484588233#2" to="-379316926#5"/>
    <trip id="05217" depart="65125.50" from="26662417#0" to="-26320273#1"/>
    <trip id="05218" depart="65127.00" from="26513333#5" to="-26320250#1"/>
    <trip id="05219" depart="65128.50" from="27500557#17" to="17056758"/>
    <trip id="05220" depart="65130.00" from="-27500534#1" to="16235971#1"/>
    <trip id="05221" depart="65131.50" from="26710735#1" to="-470509521#0"/>
    <trip id="05222" depart="65133.00" from="518955259#3" to="25154425"/>
    <trip id="05223" depart="65134.50" from="-24445795#2" to="25734063#3"/>
    <trip id="05224" depart="65136.00" from="-26320290#3" to="27369585#5"/>
    <trip id="05225" depart="65137.50" from="351535220" to="17469145#7"/>
    <trip id="05226" depart="65139.00" from="17097959#6" to="-25482081#2"/>
    <trip id="05227" depart="65140.50" from="791811885#3" to="26662421#1"/>
    <trip id="05228" depart="65142.00" from="-28010433#0" to="27073482#5"/>
    <trip id="05229" depart="65143.50" from="25401654#5" to="23111066#8"/>
    <trip id="05230" depart="65145.00" from="17058489#2" to="516209079"/>
    <trip id="05231" depart="65146.50" from="-379316928#1" to="26513335#4"/>
    <trip id="05232" depart="65148.00" from="26662416#0" to="241280576#4"/>
    <trip id="05233" depart="65149.50" from="-25775254#3" to="26513348#0"/>
    <trip id="05234" depart="65151.00" from="-156804370#0" to="27500568#0"/>
    <trip id="05235" depart="65152.50" from="-26662453" to="25734077#3"/>
    <trip id="05236" depart="65154.00" from="-26320243#6" to="-27073221#2"/>
    <trip id="05237" depart="65155.50" from="303161432#2" to="476958262"/>
    <trip id="05238" depart="65157.00" from="17468879#5" to="24445795#1"/>
    <trip id="05240" depart="65160.00" from="-25775254#2" to="26427401#1"/>
    <trip id="05241" depart="65161.50" from="-26513305#3" to="23236825#1"/>
    <trip id="05242" depart="65163.00" from="26662425" to="16966154#5"/>
    <trip id="05243" depart="65164.50" from="28010525#2" to="50275729"/>
    <trip id="05244" depart="65166.00" from="25482068#4" to="24371425#1"/>
    <trip id="05245" depart="65167.50" from="25420557#0" to="27718578#1"/>
    <trip id="05246" depart="65169.00" from="26513333#1" to="26513354#1"/>
    <trip id="05247" depart="65170.50" from="377869587#6" to="27440461#0"/>
    <trip id="05248" depart="65172.00" from="30793592#0" to="50113244#0"/>
    <trip id="05249" depart="65173.50" from="-40284876#1" to="-319507402#1"/>
    <trip id="05250" depart="65175.00" from="-26662452" to="41152981#5"/>
    <trip id="05251" depart="65176.50" from="-17468879#10" to="25401598"/>
    <trip id="05252" depart="65178.00" from="-26320262#0" to="-40303681"/>
    <trip id="05253" depart="65179.50" from="-25775320#0" to="26710689#0"/>
    <trip id="05254" depart="65181.00" from="23110739#6" to="25482098"/>
    <trip id="05255" depart="65182.50" from="-26513278#0" to="-25465248#9"/>
    <trip id="05256" depart="65184.00" from="-25154086#0" to="-25775257#1"/>
    <trip id="05257" depart="65185.50" from="592334651" to="24445795#1"/>
    <trip id="05258" depart="65187.00" from="-41424226#1" to="-272969845"/>
    <trip id="05259" depart="65188.50" from="226025406#2" to="-25281472#0"/>
    <trip id="05260" depart="65190.00" from="319277813#0" to="-27720162#1"/>
    <trip id="05261" depart="65191.50" from="26320261#1" to="300350422#3"/>
    <trip id="05262" depart="65193.00" from="26513286#1" to="156799724#10"/>
    <trip id="05263" depart="65194.50" from="34612477#0" to="41152981#5"/>
    <trip id="05264" depart="65196.00" from="-26513301#0" to="-27073232"/>
    <trip id="05265" depart="65197.50" from="25734065#7" to="28257906#4"/>
    <trip id="05266" depart="65199.00" from="-27500497#1" to="-26662398#2"/>
    <trip id="05267" depart="65200.50" from="-25775296#0" to="-104101429#1"/>
    <trip id="05268" depart="65202.00" from="25465262" to="379316926#4"/>
    <trip id="05269" depart="65203.50" from="-26662395#5" to="26513352#3"/>
    <trip id="05270" depart="65205.00" from="-29043347#2" to="25401626#1"/>
    <trip id="05271" depart="65206.50" from="27500497#0" to="25775292#3"/>
    <trip id="05272" depart="65208.00" from="17096200#4" to="27500492#6"/>
    <trip id="05273" depart="65209.50" from="-26513334#3" to="-23111080#1"/>
    <trip id="05274" depart="65211.00" from="25734058#2" to="665595730#5"/>
    <trip id="05275" depart="65212.50" from="-23111108" to="-29019823#0"/>
    <trip id="05276" depart="65214.00" from="156810841#1" to="-471523588#2"/>
    <trip id="05277" depart="65215.50" from="-25482077#2" to="25775267#22"/>
    <trip id="05278" depart="65217.00" from="17007879#3" to="-25775258#2"/>
    <trip id="05280" depart="65220.00" from="-26662395#7" to="27720004#4"/>
    <trip id="05281" depart="65221.50" from="27073591#0" to="24801349#1"/>
    <trip id="05282" depart="65223.00" from="27736408#8" to="-25734077#5"/>
    <trip id="05283" depart="65224.50" from="26513282" to="28257906#4"/>
    <trip id="05284" depart="65226.00" from="25281472#0" to="25401635#3"/>
    <trip id="05285" depart="65227.50" from="518955256" to="-28010486#2"/>
    <trip id="05286" depart="65229.00" from="-351538206#4" to="-26710730#2"/>
    <trip id="05287" depart="65230.50" from="-332419555#2" to="470509521#0"/>
    <trip id="05288" depart="65232.00" from="26320272#1" to="-26513313#1"/>
    <trip id="05289" depart="65233.50" from="243980239#3" to="-470247601#1"/>
    <trip id="05290" depart="65235.00" from="-25775277#0" to="-471778448#0"/>
    <trip id="05291" depart="65236.50" from="392659954#3" to="25734074#6"/>
    <trip id="05292" depart="65238.00" from="-27720004#1" to="-25420550#8"/>
    <trip id="05293" depart="65239.50" from="303161435#1" to="27500577#1"/>
    <trip id="05294" depart="65241.00" from="25734067#1" to="25123913#0"/>
    <trip id="05295" depart="65242.50" from="17061184#9" to="-27500557#14"/>
    <trip id="05296" depart="65244.00" from="471778454#1" to="24411825#9"/>
    <trip id="05297" depart="65245.50" from="-25775330#1" to="17006968"/>
    <trip id="05298" depart="65247.00" from="25401621#3" to="27500557#8"/>
    <trip id="05299" depart="65248.50" from="318885149#6" to="-25465204#1"/>
    <trip id="05300" depart="65250.00" from="665595730#2" to="283052784"/>
    <trip id="05301" depart="65251.50" from="-303161435#3" to="-26662398#0"/>
    <trip id="05302" depart="65253.00" from="227220003#1" to="217914480"/>
    <trip id="05303" depart="65254.50" from="-25635518#1" to="24411825#9"/>
    <trip id="05304" depart="65256.00" from="470530195#3" to="27500567#0"/>
    <trip id="05305" depart="65257.50" from="27718572#0" to="-25775284"/>
    <trip id="05306" depart="65259.00" from="-470509518" to="41937464"/>
    <trip id="05307" depart="65260.50" from="283052784" to="-26662431#5"/>
    <trip id="05308" depart="65262.00" from="-41937452#8" to="-23110739#2"/>
    <trip id="05309" depart="65263.50" from="25482082" to="25123902#1"/>
    <trip id="05310" depart="65265.00" from="25287058#1-AddedOffRampEdge" to="227245225#0"/>
    <trip id="05311" depart="65266.50" from="16966154#4" to="29043347#1"/>
    <trip id="05312" depart="65268.00" from="159767072" to="-25775294#1"/>
    <trip id="05313" depart="65269.50" from="25775289#0" to="27500492#8"/>
    <trip id="05314" depart="65271.00" from="-665595730#1" to="25465196#2"/>
    <trip id="05315" depart="65272.50" from="-25482085" to="17007350#0"/>
    <trip id="05316" depart="65274.00" from="104101429#0" to="377869587#5"/>
    <trip id="05317" depart="65275.50" from="-26662409#1" to="-25775267#17"/>
    <trip id="05318" depart="65277.00" from="-24801361#1" to="-26320290#3"/>
    <trip id="05319" depart="65278.50" from="41556548#0" to="28257906#6"/>
    <trip id="05320" depart="65280.00" from="25775283#1" to="41424226#3"/>
    <trip id="05321" depart="65281.50" from="-26320268#0" to="-392330107#2"/>
    <trip id="05322" depart="65283.00" from="-355858458#4" to="470247618#1"/>
    <trip id="05323" depart="65284.50" from="-26710735#0" to="-420861219#2"/>
    <trip id="05324" depart="65286.00" from="-319507402#1" to="221134596#0"/>
    <trip id="05325" depart="65287.50" from="-26513314#2" to="26662395#5"/>
    <trip id="05326" depart="65289.00" from="16243987#1" to="25154427#3"/>
    <trip id="05327" depart="65290.50" from="25775267#21" to="25775304#1"/>
    <trip id="05328" depart="65292.00" from="-26320250#0" to="25420550#8"/>
    <trip id="05330" depart="65295.00" from="-28010493#3" to="26710731#3"/>
    <trip id="05331" depart="65296.50" from="157770087#0" to="-16235199#1"/>
    <trip id="05332" depart="65298.00" from="25401651#2" to="28257919#7"/>
    <trip id="05333" depart="65299.50" from="25401638#6" to="-749686558#4"/>
    <trip id="05334" depart="65301.00" from="392330107#2" to="25775318#1"/>
    <trip id="05335" depart="65302.50" from="665595730#1" to="-25465262"/>
    <trip id="05336" depart="65304.00" from="26427400#1" to="26662436#0"/>
    <trip id="05337" depart="65305.50" from="17056376#2" to="-25734071#0"/>
    <trip id="05338" depart="65307.00" from="778015025#0" to="-50275728#3"/>
    <trip id="05339" depart="65308.50" from="34608618" to="-17055393#1"/>
    <trip id="05340" depart="65310.00" from="-25482107#1" to="38259236#1"/>
    <trip id="05341" depart="65311.50" from="25366404-AddedOffRampEdge" to="24444098#7"/>
    <trip id="05342" depart="65313.00" from="-471778445#2" to="-27500559"/>
    <trip id="05343" depart="65314.50" from="26513305#7" to="-26513335#0"/>
    <trip id="05344" depart="65316.00" from="23111651#0" to="25366411"/>
    <trip id="05345" depart="65317.50" from="24411814#5" to="17094536#1"/>
    <trip id="05346" depart="65319.00" from="-17469145#4" to="470509533#5"/>
    <trip id="05347" depart="65320.50" from="586701936#0" to="16232121#20"/>
    <trip id="05348" depart="65322.00" from="25775351#0" to="392529596"/>
    <trip id="05349" depart="65323.50" from="25734077#0" to="193226314#0"/>
    <trip id="05350" depart="65325.00" from="27720390#8" to="17469145#8"/>
    <trip id="05351" depart="65326.50" from="16232241#5" to="26662466#2"/>
    <trip id="05352" depart="65328.00" from="25734067#6" to="23111076#0"/>
    <trip id="05353" depart="65329.50" from="25420499#4" to="28010525#3"/>
    <trip id="05354" depart="65331.00" from="471523532#1" to="25230353#2"/>
    <trip id="05355" depart="65332.50" from="26320279#0" to="17095380#1"/>
    <trip id="05356" depart="65334.00" from="-303161435#2" to="591766587#1"/>
    <trip id="05357" depart="65335.50" from="-25775351#1" to="16243987#0"/>
    <trip id="05358" depart="65337.00" from="-27719284#1" to="40301054#1"/>
    <trip id="05359" depart="65338.50" from="-28010498#8" to="25775350"/>
    <trip id="05360" depart="65340.00" from="28010498#9" to="16224701#6"/>
    <trip id="05361" depart="65341.50" from="17461769#0" to="28010582#5"/>
    <trip id="05362" depart="65343.00" from="27073221#0" to="26513323#4"/>
    <trip id="05363" depart="65344.50" from="-27760790#2" to="292979149#1-AddedOnRampEdge"/>
    <trip id="05364" depart="65346.00" from="25401626#3" to="-26662431#5"/>
    <trip id="05365" depart="65347.50" from="25420535#4" to="25775335#2"/>
    <trip id="05366" depart="65349.00" from="-351536620" to="25420550#9"/>
    <trip id="05367" depart="65350.50" from="25154100#1" to="-355858458#4"/>
    <trip id="05368" depart="65352.00" from="25775265#1" to="-26662452"/>
    <trip id="05369" depart="65353.50" from="23115994#1" to="-25734077#7"/>
    <trip id="05371" depart="65356.50" from="470247604#4" to="28010570#0"/>
    <trip id="05372" depart="65358.00" from="-24411813#0" to="-25482112#2"/>
    <trip id="05373" depart="65359.50" from="-104613682#3" to="25401644#0"/>
    <trip id="05374" depart="65361.00" from="-25775265#1" to="392653545#1"/>
    <trip id="05375" depart="65362.50" from="470247644" to="34612501#1"/>
    <trip id="05376" depart="65364.00" from="16232090#4" to="-27440573#0"/>
    <trip id="05377" depart="65365.50" from="517932039" to="-16233070#3"/>
    <trip id="05378" depart="65367.00" from="472541422" to="26320260#3"/>
    <trip id="05379" depart="65368.50" from="-24411814#14" to="-105760885#0"/>
    <trip id="05380" depart="65370.00" from="25290968#3" to="150555043#2"/>
    <trip id="05381" depart="65371.50" from="-16243938#3" to="25775320#0"/>
    <trip id="05382" depart="65373.00" from="28010435#2" to="29043116#4-AddedOffRampEdge"/>
    <trip id="05383" depart="65374.50" from="25420496#1" to="-379316923#3"/>
    <trip id="05384" depart="65376.00" from="-24411832#5" to="247208012#2"/>
    <trip id="05385" depart="65377.50" from="24411821#1" to="25482072#1"/>
    <trip id="05386" depart="65379.00" from="-25482068#0" to="-26320250#0"/>
    <trip id="05388" depart="65382.00" from="41937494#0" to="25465226#0"/>
    <trip id="05389" depart="65383.50" from="25734077#2" to="16236020#0"/>
    <trip id="05390" depart="65385.00" from="-156810944#2" to="24411832#3"/>
    <trip id="05391" depart="65386.50" from="26662417#6" to="472541447"/>
    <trip id="05392" depart="65388.00" from="-337192923#1" to="-25775267#2"/>
    <trip id="05393" depart="65389.50" from="26513341#0" to="-25281468#6"/>
    <trip id="05394" depart="65391.00" from="27720251#6" to="-25465192"/>