<?xml version="1.0" encoding="UTF-8"?>

<!-- generated on 07/11/20 20:21:13 by Eclipse SUMO duarouter Version 1.6.0
<configuration xmlns:xsi="http://www.w3.org/2001/XMLSchema-instance" xsi:noNamespaceSchemaLocation="http://sumo.dlr.de/xsd/duarouterConfiguration.xsd">

    <input>
        <net-file value="C:\Users\adrie\Sumo\Quebec\2020-07-11-20-19-23\osm.net.xml"/>
        <route-files value="C:\Users\adrie\Sumo\Quebec\2020-07-11-20-19-23\osm.passenger.trips.xml"/>
    </input>

    <output>
        <output-file value="C:\Users\adrie\Sumo\Quebec\2020-07-11-20-19-23\osm.passenger.trips.xml.tmp"/>
        <write-trips value="true"/>
    </output>

    <time>
        <begin value="0"/>
        <end value="3600.0"/>
    </time>

    <report>
        <no-warnings value="true"/>
        <ignore-errors value="true"/>
        <no-step-log value="true"/>
    </report>

</configuration>
-->

<routes xmlns:xsi="http://www.w3.org/2001/XMLSchema-instance" xsi:noNamespaceSchemaLocation="http://sumo.dlr.de/xsd/routes_file.xsd">
    <vType id="veh_passenger" vClass="passenger"/>
    <trip id="veh0" type="veh_passenger" depart="0.00" departLane="best" from="25775258#2" to="-17055718#5"/>
    <trip id="veh1" type="veh_passenger" depart="0.28" departLane="best" departSpeed="max" from="-28010443" to="-26710730#2"/>
    <trip id="veh2" type="veh_passenger" depart="0.55" departLane="best" from="26710731#2" to="26427391"/>
    <trip id="veh3" type="veh_passenger" depart="0.83" departLane="best" departSpeed="max" from="392156894#0" to="-25154074#1"/>
    <trip id="veh4" type="veh_passenger" depart="1.11" departLane="best" from="-26513350#6" to="247208012#6"/>
    <trip id="veh5" type="veh_passenger" depart="1.38" departLane="best" from="-164475802" to="-26513333#7"/>
    <trip id="veh6" type="veh_passenger" depart="1.66" departLane="best" from="25775289#1" to="25366421"/>
    <trip id="veh7" type="veh_passenger" depart="1.93" departLane="best" from="-265148748#3" to="25465203#0"/>
    <trip id="veh8" type="veh_passenger" depart="2.21" departLane="best" from="28010528#0" to="-156810800"/>
    <trip id="veh9" type="veh_passenger" depart="2.49" departLane="best" from="28010508#4" to="26513319#22"/>
    <trip id="veh10" type="veh_passenger" depart="2.76" departLane="best" from="-470247601#4" to="-25775326"/>
    <trip id="veh11" type="veh_passenger" depart="3.04" departLane="best" from="50308784" to="-498087783#2"/>
    <trip id="veh12" type="veh_passenger" depart="3.32" departLane="best" departSpeed="max" from="-25154077" to="-25401615"/>
    <trip id="veh13" type="veh_passenger" depart="3.59" departLane="best" from="319137779" to="25482065#2"/>
    <trip id="veh14" type="veh_passenger" depart="3.87" departLane="best" from="28010512#1" to="26710722#1"/>
    <trip id="veh15" type="veh_passenger" depart="4.14" departLane="best" from="25170669" to="613811058#2"/>
    <trip id="veh17" type="veh_passenger" depart="4.70" departLane="best" from="29019650#0" to="25734052#3"/>
    <trip id="veh18" type="veh_passenger" depart="4.97" departLane="best" from="351534961" to="25420524#3"/>
    <trip id="veh19" type="veh_passenger" depart="5.25" departLane="best" from="26513327#3" to="-23111063#5"/>
    <trip id="veh20" type="veh_passenger" depart="5.53" departLane="best" from="-26662423#0" to="-303161451#2"/>
    <trip id="veh21" type="veh_passenger" depart="5.80" departLane="best" from="-24445793#3" to="-27440460#0"/>
    <trip id="veh22" type="veh_passenger" depart="6.08" departLane="best" from="-25366432#6" to="-28010583#0"/>
    <trip id="veh23" type="veh_passenger" depart="6.35" departLane="best" from="25757357#2" to="156810718"/>
    <trip id="veh25" type="veh_passenger" depart="6.91" departLane="best" departSpeed="max" from="-27720162#6" to="472494375#2"/>
    <trip id="veh26" type="veh_passenger" depart="7.18" departLane="best" from="25775281#6" to="25482098"/>
    <trip id="veh27" type="veh_passenger" depart="7.46" departLane="best" from="-25775351#2" to="26710689#3"/>
    <trip id="veh28" type="veh_passenger" depart="7.74" departLane="best" from="-25775290#0" to="16224634#11"/>
    <trip id="veh29" type="veh_passenger" depart="8.01" departLane="best" from="665595729#0" to="25775281#1"/>
    <trip id="veh30" type="veh_passenger" depart="8.29" departLane="best" from="25366413#5" to="26513280#2"/>
    <trip id="veh31" type="veh_passenger" depart="8.56" departLane="best" from="30793898#0" to="27720264#0"/>
    <trip id="veh32" type="veh_passenger" depart="8.84" departLane="best" departSpeed="max" from="-26662429" to="-17097429#3"/>
    <trip id="veh33" type="veh_passenger" depart="9.12" departLane="best" from="-351538206#1" to="-28010493#0"/>
    <trip id="veh34" type="veh_passenger" depart="9.39" departLane="best" from="-26513319#18" to="476958262"/>
    <trip id="veh35" type="veh_passenger" depart="9.67" departLane="best" from="377868539#1" to="-41152981#2"/>
    <trip id="veh36" type="veh_passenger" depart="9.95" departLane="best" from="25775319#3" to="16235199#0"/>
    <trip id="veh37" type="veh_passenger" depart="10.22" departLane="best" from="41937462#3" to="23116043"/>
    <trip id="veh38" type="veh_passenger" depart="10.50" departLane="best" from="-27719284#3" to="-27500561#1"/>
    <trip id="veh39" type="veh_passenger" depart="10.77" departLane="best" from="25366433" to="-28010448#1"/>
    <trip id="veh40" type="veh_passenger" depart="11.05" departLane="best" from="25420498#0" to="40284876#0"/>
    <trip id="veh41" type="veh_passenger" depart="11.33" departLane="best" from="16232090#3" to="-26662464#1"/>
    <trip id="veh42" type="veh_passenger" depart="11.60" departLane="best" from="791811884#6" to="24801361#2"/>
    <trip id="veh43" type="veh_passenger" depart="11.88" departLane="best" from="-25123910#17" to="-23111066#9"/>
    <trip id="veh44" type="veh_passenger" depart="12.16" departLane="best" departSpeed="max" from="-25420527#1" to="25734077#4"/>
    <trip id="veh45" type="veh_passenger" depart="12.43" departLane="best" from="27924730#1" to="17097429#1"/>
    <trip id="veh46" type="veh_passenger" depart="12.71" departLane="best" from="-240860999#2" to="16225541#1"/>
    <trip id="veh47" type="veh_passenger" depart="12.98" departLane="best" departSpeed="max" from="791811884#0" to="25281501#0"/>
    <trip id="veh48" type="veh_passenger" depart="13.26" departLane="best" from="591743000#2" to="351536226#9"/>
    <trip id="veh49" type="veh_passenger" depart="13.54" departLane="best" from="-156810827#8" to="26662433#1"/>
    <trip id="veh50" type="veh_passenger" depart="13.81" departLane="best" from="26427395" to="25313531#1"/>
    <trip id="veh51" type="veh_passenger" depart="14.09" departLane="best" from="-27720162#4" to="25775281#2"/>
    <trip id="veh52" type="veh_passenger" depart="14.37" departLane="best" departSpeed="max" from="-25420540" to="202901853"/>
    <trip id="veh53" type="veh_passenger" depart="14.64" departLane="best" from="218339062#1" to="50308781#0"/>
    <trip id="veh54" type="veh_passenger" depart="14.92" departLane="best" from="377868538#8" to="-28010451#2"/>
    <trip id="veh55" type="veh_passenger" depart="15.19" departLane="best" departSpeed="max" from="24411833#0" to="-26427404"/>
    <trip id="veh56" type="veh_passenger" depart="15.47" departLane="best" from="41937457#2" to="377868538#2"/>
    <trip id="veh57" type="veh_passenger" depart="15.75" departLane="best" from="-29019823#0" to="25775280#1"/>
    <trip id="veh58" type="veh_passenger" depart="16.02" departLane="best" from="25465249#8" to="-25775304#3"/>
    <trip id="veh59" type="veh_passenger" depart="16.30" departLane="best" from="27500558#1" to="25355542"/>
    <trip id="veh60" type="veh_passenger" depart="16.58" departLane="best" from="27719194#1" to="25287058#1-AddedOffRampEdge"/>
    <trip id="veh61" type="veh_passenger" depart="16.85" departLane="best" from="-104613682#2" to="-470180773#0"/>
    <trip id="veh62" type="veh_passenger" depart="17.13" departLane="best" from="-16232121#4" to="471523531#1"/>
    <trip id="veh63" type="veh_passenger" depart="17.40" departLane="best" from="377869589" to="29019847#7"/>
    <trip id="veh65" type="veh_passenger" depart="17.96" departLane="best" from="377869587#7" to="496882060"/>
    <trip id="veh66" type="veh_passenger" depart="18.23" departLane="best" from="-247751386#0" to="24419292#1"/>
    <trip id="veh67" type="veh_passenger" depart="18.51" departLane="best" from="-24411811#0" to="27500583#5"/>
    <trip id="veh68" type="veh_passenger" depart="18.79" departLane="best" from="27500573#0" to="-25734060#3"/>
    <trip id="veh70" type="veh_passenger" depart="19.34" departLane="best" from="-27719284#5" to="377868539#0"/>
    <trip id="veh71" type="veh_passenger" depart="19.61" departLane="best" from="17056546#0" to="-26662422#0"/>
    <trip id="veh72" type="veh_passenger" depart="19.89" departLane="best" from="25230359#1" to="26710726#1"/>
    <trip id="veh73" type="veh_passenger" depart="20.17" departLane="best" from="-26513296" to="-40284875#1"/>
    <trip id="veh74" type="veh_passenger" depart="20.44" departLane="best" from="778015025#3" to="25775335#3"/>
    <trip id="veh75" type="veh_passenger" depart="20.72" departLane="best" from="17097959#5" to="25154077"/>
    <trip id="veh76" type="veh_passenger" depart="21.00" departLane="best" from="-25465233#2" to="-26710733"/>
    <trip id="veh77" type="veh_passenger" depart="21.27" departLane="best" from="-424989270#1" to="25465196#2"/>
    <trip id="veh78" type="veh_passenger" depart="21.55" departLane="best" from="-26662433#3" to="-26710682"/>
    <trip id="veh79" type="veh_passenger" depart="21.82" departLane="best" from="-24411813#2" to="25775254#6"/>
    <trip id="veh80" type="veh_passenger" depart="22.10" departLane="best" departSpeed="max" from="-26662429" to="41552753#0"/>
    <trip id="veh81" type="veh_passenger" depart="22.38" departLane="best" from="34726693#3" to="-24411822"/>
    <trip id="veh82" type="veh_passenger" depart="22.65" departLane="best" from="-26710689#3" to="26320274#3"/>
    <trip id="veh83" type="veh_passenger" depart="22.93" departLane="best" from="-26513331" to="-25734067#4"/>
    <trip id="veh84" type="veh_passenger" depart="23.21" departLane="best" from="471523589" to="25420499#10"/>
    <trip id="veh85" type="veh_passenger" depart="23.48" departLane="best" departSpeed="max" from="23116048#0" to="27924730#0"/>
    <trip id="veh86" type="veh_passenger" depart="23.76" departLane="best" from="28010516#1" to="-26513306#5"/>
    <trip id="veh87" type="veh_passenger" depart="24.03" departLane="best" from="-25170670#2" to="17469145#8"/>
    <trip id="veh88" type="veh_passenger" depart="24.31" departLane="best" from="17056546#5" to="240860996#0"/>
    <trip id="veh89" type="veh_passenger" depart="24.59" departLane="best" from="26662462#1" to="264028375"/>
    <trip id="veh90" type="veh_passenger" depart="24.86" departLane="best" from="658002699#0" to="-25420499#2"/>
    <trip id="veh91" type="veh_passenger" depart="25.14" departLane="best" from="16232458#3" to="-505363320#0"/>
    <trip id="veh92" type="veh_passenger" depart="25.42" departLane="best" from="351534959#2" to="-27500572#0"/>
    <trip id="veh93" type="veh_passenger" depart="25.69" departLane="best" departSpeed="max" from="-26427386#5" to="23110710#3"/>
    <trip id="veh94" type="veh_passenger" depart="25.97" departLane="best" from="17007879#3" to="-28039953#0"/>
    <trip id="veh95" type="veh_passenger" depart="26.24" departLane="best" from="-27440572#6" to="470247625#2"/>
    <trip id="veh96" type="veh_passenger" depart="26.52" departLane="best" from="17468879#5" to="351536386#1"/>
    <trip id="veh97" type="veh_passenger" depart="26.80" departLane="best" from="25313533#0" to="-23111651#0"/>
    <trip id="veh98" type="veh_passenger" depart="27.07" departLane="best" from="796357473#7" to="300350422#3"/>
    <trip id="veh99" type="veh_passenger" depart="27.35" departLane="best" from="586701938" to="470509521#3"/>
    <trip id="veh100" type="veh_passenger" depart="27.63" departLane="best" from="319284131#3" to="-26320261#0"/>
    <trip id="veh101" type="veh_passenger" depart="27.90" departLane="best" from="241501814#7" to="-26662433#4"/>
    <trip id="veh102" type="veh_passenger" depart="28.18" departLane="best" from="16232121#9" to="-239609983"/>
    <trip id="veh103" type="veh_passenger" depart="28.45" departLane="best" from="156804380#3" to="658002699#0"/>
    <trip id="veh104" type="veh_passenger" depart="28.73" departLane="best" from="-27719284#7" to="27924727#1"/>
    <trip id="veh105" type="veh_passenger" depart="29.01" departLane="best" from="221134596#3" to="17097613#0"/>
    <trip id="veh106" type="veh_passenger" depart="29.28" departLane="best" from="50308784" to="778015025#3"/>
    <trip id="veh107" type="veh_passenger" depart="29.56" departLane="best" from="25366409" to="26662421#3"/>
    <trip id="veh108" type="veh_passenger" depart="29.84" departLane="best" from="-25775267#12" to="-351534957#3"/>
    <trip id="veh109" type="veh_passenger" depart="30.11" departLane="best" from="586701937#1" to="25420530#2"/>
    <trip id="veh110" type="veh_passenger" depart="30.39" departLane="best" from="25281477#6" to="27500491#1"/>
    <trip id="veh111" type="veh_passenger" depart="30.66" departLane="best" from="-23111715#2" to="25420547"/>
    <trip id="veh112" type="veh_passenger" depart="30.94" departLane="best" departSpeed="max" from="24419296#0" to="34608657"/>
    <trip id="veh113" type="veh_passenger" depart="31.22" departLane="best" from="-25775272#1" to="518955260#0"/>
    <trip id="veh114" type="veh_passenger" depart="31.49" departLane="best" from="-24445795#2" to="-26513299"/>
    <trip id="veh115" type="veh_passenger" depart="31.77" departLane="best" from="25420543#0" to="26427385#1"/>
    <trip id="veh116" type="veh_passenger" depart="32.05" departLane="best" from="-26662458" to="-25482091"/>
    <trip id="veh117" type="veh_passenger" depart="32.32" departLane="best" from="38260988#2-AddedOffRampEdge" to="-27500558#9"/>
    <trip id="veh118" type="veh_passenger" depart="32.60" departLane="best" from="25420539" to="25734056#0"/>
    <trip id="veh119" type="veh_passenger" depart="32.87" departLane="best" from="164512034#1" to="25420546"/>
    <trip id="veh120" type="veh_passenger" depart="33.15" departLane="best" from="247208010#2" to="471778457#2"/>
    <trip id="veh121" type="veh_passenger" depart="33.43" departLane="best" from="-26513305#17" to="26662411#3"/>
    <trip id="veh122" type="veh_passenger" depart="33.70" departLane="best" from="-26710722#0" to="16235260#0"/>
    <trip id="veh123" type="veh_passenger" depart="33.98" departLane="best" from="26320260#2" to="-351973620#0"/>
    <trip id="veh124" type="veh_passenger" depart="34.26" departLane="best" from="-351538206#7" to="27500536#0"/>
    <trip id="veh125" type="veh_passenger" depart="34.53" departLane="best" from="-24411814#13" to="23115976"/>
    <trip id="veh126" type="veh_passenger" depart="34.81" departLane="best" from="791811886#1" to="786021626#0"/>
    <trip id="veh127" type="veh_passenger" depart="35.08" departLane="best" from="-24411814#4" to="-26662431#5"/>
    <trip id="veh128" type="veh_passenger" depart="35.36" departLane="best" from="-27719284#7" to="471778448#1"/>
    <trip id="veh129" type="veh_passenger" depart="35.64" departLane="best" from="379316926#3" to="380134213#0"/>
    <trip id="veh130" type="veh_passenger" depart="35.91" departLane="best" from="-791811886#2" to="-25775341"/>
    <trip id="veh131" type="veh_passenger" depart="36.19" departLane="best" from="29019847#4" to="26513338#2"/>
    <trip id="veh132" type="veh_passenger" depart="36.47" departLane="best" from="25482061#1" to="661062632"/>
    <trip id="veh133" type="veh_passenger" depart="36.74" departLane="best" from="25775314#3" to="-156810827#4"/>
    <trip id="veh134" type="veh_passenger" depart="37.02" departLane="best" from="28040289" to="-351538206#2"/>
    <trip id="veh135" type="veh_passenger" depart="37.29" departLane="best" from="25794940" to="472541438"/>
    <trip id="veh136" type="veh_passenger" depart="37.57" departLane="best" departSpeed="max" from="-25482106#5" to="-25482065#0"/>
    <trip id="veh137" type="veh_passenger" depart="37.85" departLane="best" from="-25420515#3" to="25401610#6"/>
    <trip id="veh138" type="veh_passenger" depart="38.12" departLane="best" from="-27924747#2" to="25482073#1"/>
    <trip id="veh139" type="veh_passenger" depart="38.40" departLane="best" from="26662400#0" to="-26513352#3"/>
    <trip id="veh140" type="veh_passenger" depart="38.68" departLane="best" from="25734075#1" to="-28010452#3"/>
    <trip id="veh141" type="veh_passenger" depart="38.95" departLane="best" from="24371421#3" to="41552753#0"/>
    <trip id="veh142" type="veh_passenger" depart="39.23" departLane="best" departSpeed="max" from="318885153#0" to="-25281504"/>
    <trip id="veh143" type="veh_passenger" depart="39.50" departLane="best" from="17056546#5" to="-28010577#1"/>
    <trip id="veh144" type="veh_passenger" depart="39.78" departLane="best" from="-156804366#4" to="27719284#0"/>
    <trip id="veh145" type="veh_passenger" depart="40.06" departLane="best" from="25775251#5" to="-28010445#2"/>
    <trip id="veh146" type="veh_passenger" depart="40.33" departLane="best" departSpeed="max" from="27073232" to="25401608"/>
    <trip id="veh147" type="veh_passenger" depart="40.61" departLane="best" from="17061184#9" to="-156810903#1"/>
    <trip id="veh148" type="veh_passenger" depart="40.89" departLane="best" from="-24411830#2" to="38260974"/>
    <trip id="veh149" type="veh_passenger" depart="41.16" departLane="best" from="41157321#1" to="25366422#1-AddedOnRampEdge"/>
    <trip id="veh150" type="veh_passenger" depart="41.44" departLane="best" from="29043115#1" to="25420542#1"/>
    <trip id="veh151" type="veh_passenger" depart="41.71" departLane="best" from="-319507402#2" to="40301353"/>
    <trip id="veh152" type="veh_passenger" depart="41.99" departLane="best" from="28010451#6" to="351536226#8"/>
    <trip id="veh153" type="veh_passenger" depart="42.27" departLane="best" from="40284876#0" to="-26662408#1"/>
    <trip id="veh154" type="veh_passenger" depart="42.54" departLane="best" from="-27440572#3" to="-25420531#4"/>
    <trip id="veh155" type="veh_passenger" depart="42.82" departLane="best" from="27719976#2" to="38260977#1-AddedOnRampEdge"/>
    <trip id="veh156" type="veh_passenger" depart="43.10" departLane="best" from="16233470#2" to="25734062#1"/>
    <trip id="veh157" type="veh_passenger" depart="43.37" departLane="best" from="-25775267#0" to="471523536"/>
    <trip id="veh158" type="veh_passenger" depart="43.65" departLane="best" from="351536226#9" to="614782937"/>
    <trip id="veh159" type="veh_passenger" depart="43.92" departLane="best" from="28010562#2" to="38259242"/>
    <trip id="veh160" type="veh_passenger" depart="44.20" departLane="best" from="-16234894#1" to="27073472#3"/>
    <trip id="veh161" type="veh_passenger" depart="44.48" departLane="best" from="-41551160#0" to="471523557#0"/>
    <trip id="veh162" type="veh_passenger" depart="44.75" departLane="best" from="28010495#3" to="354970776#2"/>
    <trip id="veh163" type="veh_passenger" depart="45.03" departLane="best" from="28010562#1" to="-28010482#0"/>
    <trip id="veh164" type="veh_passenger" depart="45.31" departLane="best" from="27760340#1" to="-25465231#2"/>
    <trip id="veh165" type="veh_passenger" depart="45.58" departLane="best" from="377868532#5" to="351535209"/>
    <trip id="veh166" type="veh_passenger" depart="45.86" departLane="best" from="-26662393#1" to="28257919#8"/>
    <trip id="veh167" type="veh_passenger" depart="46.13" departLane="best" from="227532602#2" to="-377868539#1"/>
    <trip id="veh168" type="veh_passenger" depart="46.41" departLane="best" departSpeed="max" from="28010451#0" to="-27073149#0"/>
    <trip id="veh169" type="veh_passenger" depart="46.69" departLane="best" from="-16233470#0" to="-26513316"/>
    <trip id="veh170" type="veh_passenger" depart="46.96" departLane="best" from="-392653543#1" to="355858458#2"/>
    <trip id="veh171" type="veh_passenger" depart="47.24" departLane="best" from="586701921#2" to="-28040290#0"/>
    <trip id="veh172" type="veh_passenger" depart="47.52" departLane="best" from="25775267#13" to="16237198#0"/>
    <trip id="veh173" type="veh_passenger" depart="47.79" departLane="best" from="622435359" to="25290968#1"/>
    <trip id="veh174" type="veh_passenger" depart="48.07" departLane="best" from="472494375#5" to="-25482062#3"/>
    <trip id="veh175" type="veh_passenger" depart="48.34" departLane="best" from="590990513#1" to="-26427403#1"/>
    <trip id="veh176" type="veh_passenger" depart="48.62" departLane="best" from="518954362" to="-28010469#3"/>
    <trip id="veh177" type="veh_passenger" depart="48.90" departLane="best" departSpeed="max" from="-25420524#3" to="202901853"/>
    <trip id="veh178" type="veh_passenger" depart="49.17" departLane="best" from="26662456#1" to="-41147500#4"/>
    <trip id="veh179" type="veh_passenger" depart="49.45" departLane="best" from="25465242" to="249145923#1"/>
    <trip id="veh180" type="veh_passenger" depart="49.73" departLane="best" departSpeed="max" from="156810840" to="25420523"/>
    <trip id="veh181" type="veh_passenger" depart="50.00" departLane="best" from="-27500534#0" to="265148748#5"/>
    <trip id="veh182" type="veh_passenger" depart="50.28" departLane="best" departSpeed="max" from="-118535497" to="470509514"/>
    <trip id="veh183" type="veh_passenger" depart="50.55" departLane="best" from="25230316#2" to="26662427"/>
    <trip id="veh184" type="veh_passenger" depart="50.83" departLane="best" from="27073472#0" to="26320280#2"/>
    <trip id="veh185" type="veh_passenger" depart="51.11" departLane="best" from="-665595730#3" to="-24411814#9"/>
    <trip id="veh186" type="veh_passenger" depart="51.38" departLane="best" from="25794942#1-AddedOnRampEdge" to="-471523557#1"/>
    <trip id="veh187" type="veh_passenger" depart="51.66" departLane="best" from="-351536226#6" to="332419555#3"/>
    <trip id="veh188" type="veh_passenger" depart="51.94" departLane="best" from="26662411#3" to="-355858458#1"/>
    <trip id="veh189" type="veh_passenger" depart="52.21" departLane="best" departSpeed="max" from="-337192923#1" to="17055393#1"/>
    <trip id="veh190" type="veh_passenger" depart="52.49" departLane="best" from="16232458#2" to="-34726693#5"/>
    <trip id="veh191" type="veh_passenger" depart="52.76" departLane="best" from="-25482062#1" to="17096941#2"/>
    <trip id="veh192" type="veh_passenger" depart="53.04" departLane="best" from="472541427" to="26427396#0"/>
    <trip id="veh193" type="veh_passenger" depart="53.32" departLane="best" from="41152980#4" to="25482126#0"/>
    <trip id="veh194" type="veh_passenger" depart="53.59" departLane="best" from="-29043133#1" to="25366432#6"/>
    <trip id="veh195" type="veh_passenger" depart="53.87" departLane="best" from="-104613682#0" to="-302399308#10"/>
    <trip id="veh196" type="veh_passenger" depart="54.15" departLane="best" from="17095262#2" to="25420532#1"/>
    <trip id="veh198" type="veh_passenger" depart="54.70" departLane="best" from="17468879#10" to="-26662433#4"/>
    <trip id="veh199" type="veh_passenger" depart="54.97" departLane="best" from="23116052#0" to="41152981#3"/>
    <trip id="veh200" type="veh_passenger" depart="55.25" departLane="best" from="28010451#5" to="-26320275#0"/>
    <trip id="veh201" type="veh_passenger" depart="55.53" departLane="best" from="-247208012#3" to="25123910#7"/>
    <trip id="veh202" type="veh_passenger" depart="55.80" departLane="best" from="25734072#2" to="-498087778#2"/>
    <trip id="veh203" type="veh_passenger" depart="56.08" departLane="best" departSpeed="max" from="28257600" to="27500515"/>
    <trip id="veh204" type="veh_passenger" depart="56.36" departLane="best" from="26320266#2" to="-26710733"/>
    <trip id="veh205" type="veh_passenger" depart="56.63" departLane="best" from="-26513286#1" to="-17055297"/>
    <trip id="veh206" type="veh_passenger" depart="56.91" departLane="best" departSpeed="max" from="-27440410#2" to="243982066#5"/>
    <trip id="veh207" type="veh_passenger" depart="57.18" departLane="best" departSpeed="max" from="323729583" to="-24419298#0"/>
    <trip id="veh208" type="veh_passenger" depart="57.46" departLane="best" from="16243878#4" to="25775251#8"/>
    <trip id="veh209" type="veh_passenger" depart="57.74" departLane="best" from="-26427407#2" to="26513315#4"/>
    <trip id="veh210" type="veh_passenger" depart="58.01" departLane="best" from="24411814#12" to="-27500557#0"/>
    <trip id="veh211" type="veh_passenger" depart="58.29" departLane="best" from="25775322" to="-156810741#1"/>
    <trip id="veh212" type="veh_passenger" depart="58.57" departLane="best" from="27440466#1" to="27719193#1"/>
    <trip id="veh213" type="veh_passenger" depart="58.84" departLane="best" from="-25420504#7" to="17098157"/>
    <trip id="veh214" type="veh_passenger" depart="59.12" departLane="best" from="-26320250#4" to="518028887#4"/>
    <trip id="veh215" type="veh_passenger" depart="59.39" departLane="best" from="244856608#10" to="-23111480"/>
    <trip id="veh216" type="veh_passenger" depart="59.67" departLane="best" departSpeed="max" from="-27440571#1" to="332419555#5"/>
    <trip id="veh217" type="veh_passenger" depart="59.95" departLane="best" from="223768370" to="28010510#3"/>
    <trip id="veh218" type="veh_passenger" depart="60.22" departLane="best" from="26320250#3" to="661310462-AddedOffRampEdge"/>
    <trip id="veh220" type="veh_passenger" depart="60.78" departLane="best" from="38947732#1" to="25482115#1"/>
    <trip id="veh221" type="veh_passenger" depart="61.05" departLane="best" from="26662410#0" to="247208011#3"/>
    <trip id="veh222" type="veh_passenger" depart="61.33" departLane="best" from="29019674#3" to="25366432#5"/>
    <trip id="veh223" type="veh_passenger" depart="61.60" departLane="best" from="392659954#8" to="27440467"/>
    <trip id="veh224" type="veh_passenger" depart="61.88" departLane="best" from="23236491#6" to="-27924729"/>
    <trip id="veh225" type="veh_passenger" depart="62.16" departLane="best" from="-27440544#2" to="25775276#0"/>
    <trip id="veh226" type="veh_passenger" depart="62.43" departLane="best" from="27500573#0" to="25154426#7"/>
    <trip id="veh227" type="veh_passenger" depart="62.71" departLane="best" from="25734060#1" to="-28010566#6"/>
    <trip id="veh228" type="veh_passenger" depart="62.99" departLane="best" from="-24419307#9" to="-29043293#1"/>
    <trip id="veh229" type="veh_passenger" depart="63.26" departLane="best" from="-27924729" to="-41937456#4"/>
    <trip id="veh230" type="veh_passenger" depart="63.54" departLane="best" from="25230362" to="-25775252#1"/>
    <trip id="veh231" type="veh_passenger" depart="63.81" departLane="best" from="-26662437#0" to="26513308#6"/>
    <trip id="veh232" type="veh_passenger" depart="64.09" departLane="best" from="26513334#4" to="-243982050#0"/>
    <trip id="veh233" type="veh_passenger" depart="64.37" departLane="best" from="16233660#0" to="25366405-AddedOnRampEdge"/>
    <trip id="veh234" type="veh_passenger" depart="64.64" departLane="best" from="16244236#0" to="-26662393#1"/>
    <trip id="veh235" type="veh_passenger" depart="64.92" departLane="best" from="16966006#2" to="41551180#1"/>
    <trip id="veh236" type="veh_passenger" depart="65.20" departLane="best" from="25420496#2" to="26513314#0"/>
    <trip id="veh237" type="veh_passenger" depart="65.47" departLane="best" from="34608662#1" to="27718818#1"/>
    <trip id="veh238" type="veh_passenger" depart="65.75" departLane="best" from="-498087781#2" to="27500556#3"/>
    <trip id="veh239" type="veh_passenger" depart="66.02" departLane="best" from="33658107#1" to="50275729"/>
    <trip id="veh240" type="veh_passenger" depart="66.30" departLane="best" from="164512033#9" to="27440603"/>
    <trip id="veh241" type="veh_passenger" depart="66.58" departLane="best" from="25289032#5" to="25482062#1"/>
    <trip id="veh242" type="veh_passenger" depart="66.85" departLane="best" from="-265148748#4" to="-26662465#0"/>
    <trip id="veh243" type="veh_passenger" depart="67.13" departLane="best" from="17097429#1" to="-17095262#3"/>
    <trip id="veh244" type="veh_passenger" depart="67.41" departLane="best" from="-41937457#6" to="26427399#0"/>
    <trip id="veh245" type="veh_passenger" depart="67.68" departLane="best" from="16233040#4" to="-26320255#1"/>
    <trip id="veh246" type="veh_passenger" depart="67.96" departLane="best" from="23111085#0" to="-25734057#2"/>
    <trip id="veh247" type="veh_passenger" depart="68.23" departLane="best" departSpeed="max" from="25482125#0" to="-17058489#4"/>
    <trip id="veh248" type="veh_passenger" depart="68.51" departLane="best" from="16224701#6" to="25401647#0"/>
    <trip id="veh249" type="veh_passenger" depart="68.79" departLane="best" from="-164512034#0" to="25775287#0"/>
    <trip id="veh250" type="veh_passenger" depart="69.06" departLane="best" departSpeed="max" from="-25482110" to="23236648#2"/>
    <trip id="veh251" type="veh_passenger" depart="69.34" departLane="best" from="-23110774#9" to="16224377#5"/>
    <trip id="veh252" type="veh_passenger" depart="69.62" departLane="best" from="-26513319#26" to="-470509518"/>
    <trip id="veh253" type="veh_passenger" depart="69.89" departLane="best" departSpeed="max" from="27500557#0" to="16224377#5"/>
    <trip id="veh254" type="veh_passenger" depart="70.17" departLane="best" from="27440556" to="29043115#1"/>
    <trip id="veh255" type="veh_passenger" depart="70.44" departLane="best" from="-27500492#4" to="-247208011#0"/>
    <trip id="veh256" type="veh_passenger" depart="70.72" departLane="best" from="-16232121#3" to="25355542"/>
    <trip id="veh258" type="veh_passenger" depart="71.27" departLane="best" from="25775290#2" to="27760387#1"/>