<?xml version="1.0" encoding="UTF-8"?>

<!-- generated on 10/02/20 18:02:13 by Eclipse SUMO duarouter Version 1.6.0
<configuration xmlns:xsi="http://www.w3.org/2001/XMLSchema-instance" xsi:noNamespaceSchemaLocation="http://sumo.dlr.de/xsd/duarouterConfiguration.xsd">

    <input>
        <net-file value="Quebec\osm.net.xml"/>
        <additional-files value="Quebec\osm.add.xml"/>
        <route-files value="Quebec\rushPM.passenger.trips.xml"/>
    </input>

    <output>
        <output-file value="Quebec\rushPM.passenger.trips.xml.tmp"/>
        <write-trips value="true"/>
    </output>

    <time>
        <begin value="54000.0"/>
        <end value="64800.0"/>
    </time>

    <report>
        <no-warnings value="true"/>
        <ignore-errors value="true"/>
        <no-step-log value="true"/>
    </report>

</configuration>
-->

<routes xmlns:xsi="http://www.w3.org/2001/XMLSchema-instance" xsi:noNamespaceSchemaLocation="http://sumo.dlr.de/xsd/routes_file.xsd">
    <trip id="040" depart="54000.00" from="25420497#2" to="-26320254#0"/>
    <trip id="041" depart="54000.30" from="-25482106#3" to="211660706#3"/>
    <trip id="042" depart="54000.60" from="16232915#3" to="-26513319#13"/>
    <trip id="043" depart="54000.90" from="156799724#8" to="28010560#0"/>
    <trip id="044" depart="54001.20" from="-25482096" to="-26320292"/>
    <trip id="045" depart="54001.50" from="-17055718#4" to="-26662450#3"/>
    <trip id="046" depart="54001.80" from="-25154426#4" to="592069584"/>
    <trip id="047" depart="54002.10" from="-29019797#2" to="657694259"/>
    <trip id="048" depart="54002.40" from="25775267#13" to="-27500569#0"/>
    <trip id="049" depart="54002.70" from="-26662395#7" to="25775335#3"/>
    <trip id="0410" depart="54003.00" from="-25482098" to="-159767072"/>
    <trip id="0411" depart="54003.30" from="27006738#4" to="25482088"/>
    <trip id="0413" depart="54003.90" from="-17095380#1" to="26662462#3"/>
    <trip id="0414" depart="54004.20" from="27719166#3" to="-665595729#1"/>
    <trip id="0415" depart="54004.50" from="-633452341#4" to="-27440572#1"/>
    <trip id="0416" depart="54004.80" from="472541425" to="337192923#1"/>
    <trip id="0417" depart="54005.10" from="-25775336#1" to="26710729#1"/>
    <trip id="0418" depart="54005.40" from="16233470#4" to="-17095262#1"/>
    <trip id="0419" depart="54005.70" from="-26427398#2" to="392440879"/>
    <trip id="0420" depart="54006.00" from="-310720097#7" to="25775304#3"/>
    <trip id="0421" depart="54006.30" from="26662450#1" to="156810874#1"/>
    <trip id="0422" depart="54006.60" from="240860999#1" to="29019823#4"/>
    <trip id="0423" depart="54006.90" from="26513308#4" to="24445797#7"/>
    <trip id="0424" depart="54007.20" from="25123910#8" to="17096799#6"/>
    <trip id="0425" depart="54007.50" from="16236580#2" to="25775287#1"/>
    <trip id="0426" depart="54007.80" from="-26662450#0" to="302399308#9"/>
    <trip id="0427" depart="54008.10" from="-28010472#0" to="-26662405#1"/>
    <trip id="0428" depart="54008.40" from="16224377#4" to="25281468#2"/>
    <trip id="0429" depart="54008.70" from="17055718#7" to="28010485#1"/>
    <trip id="0430" depart="54009.00" from="-156799727#4" to="592069583#1"/>
    <trip id="0431" depart="54009.30" from="-26513319#9" to="-26427409#0"/>
    <trip id="0432" depart="54009.60" from="25775287#2" to="-28010507#2"/>
    <trip id="0433" depart="54009.90" from="24411822" to="25734075#1"/>
    <trip id="0434" depart="54010.20" from="-24411814#10" to="26662444#1"/>
    <trip id="0435" depart="54010.50" from="-26427386#1" to="27719166#3"/>
    <trip id="0436" depart="54010.80" from="351535176#1" to="17097488#2"/>
    <trip id="0437" depart="54011.10" from="-303121078#4" to="24411817#0"/>
    <trip id="0438" depart="54011.40" from="377868538#4" to="586701931#1"/>
    <trip id="0439" depart="54011.70" from="26513277#1" to="157770087#0"/>
    <trip id="0440" depart="54012.00" from="156810838" to="26320269#7"/>
    <trip id="0441" depart="54012.30" from="-351535208" to="27500536#1"/>
    <trip id="0442" depart="54012.60" from="24444089#2" to="24472361#3"/>
    <trip id="0443" depart="54012.90" from="28010526#3" to="351536388"/>
    <trip id="0444" depart="54013.20" from="27440460#1" to="25734057#2"/>
    <trip id="0445" depart="54013.50" from="17461769#0" to="28010583#1"/>
    <trip id="0446" depart="54013.80" from="-26662450#1" to="-239609983"/>
    <trip id="0447" depart="54014.10" from="-28010562#3" to="28010473#0"/>
    <trip id="0448" depart="54014.40" from="25465249#5" to="-16234923#0"/>
    <trip id="0449" depart="54014.70" from="26662399#4" to="25465222#3"/>
    <trip id="0450" depart="54015.00" from="23110710#2" to="-17094990"/>
    <trip id="0451" depart="54015.30" from="-16232121#5" to="-24411814#1"/>
    <trip id="0452" depart="54015.60" from="323729583" to="16230993#2"/>
    <trip id="0453" depart="54015.90" from="-23116043" to="27720394#2"/>
    <trip id="0454" depart="54016.20" from="23111085#9" to="-41424226#7"/>
    <trip id="0455" depart="54016.50" from="156804366#4" to="-26513305#21"/>
    <trip id="0456" depart="54016.80" from="-17097066#2" to="27500514#2"/>
    <trip id="0457" depart="54017.10" from="34612843#0" to="-470186319#1"/>
    <trip id="0458" depart="54017.40" from="-16243938#3" to="791811886#0"/>
    <trip id="0459" depart="54017.70" from="-25465213#1" to="-592265791"/>
    <trip id="0461" depart="54018.30" from="-25775278#4" to="-27440559#0"/>
    <trip id="0462" depart="54018.60" from="17096799#1" to="25482111"/>
    <trip id="0464" depart="54019.20" from="470509529#0" to="-26513346#0"/>
    <trip id="0465" depart="54019.50" from="-26513284#2" to="-175794804#3"/>
    <trip id="0466" depart="54019.80" from="28010486#0" to="24419289#2"/>
    <trip id="0467" depart="54020.10" from="-518955257#0" to="25734063#6"/>
    <trip id="0468" depart="54020.40" from="-27500582" to="-587383103#0"/>
    <trip id="0469" depart="54020.70" from="-25775250#2" to="16244236#1"/>
    <trip id="0470" depart="54021.00" from="-302399308#3" to="25230353#3"/>
    <trip id="0471" depart="54021.30" from="319277813#1" to="27500491#0"/>
    <trip id="0472" depart="54021.60" from="25775259" to="25401639#3"/>
    <trip id="0473" depart="54021.90" from="29043133#0" to="-25775308#0"/>
    <trip id="0474" depart="54022.20" from="471778457#0" to="-25775282#5"/>
    <trip id="0475" depart="54022.50" from="345772681" to="240860995#1"/>
    <trip id="0477" depart="54023.10" from="-25482057#1" to="-29019797#3"/>
    <trip id="0478" depart="54023.40" from="28010508#0" to="-27440573#6"/>
    <trip id="0479" depart="54023.70" from="16224701#11" to="-25465248#14"/>
    <trip id="0480" depart="54024.00" from="-24445805#10" to="-25775289#0"/>
    <trip id="0481" depart="54024.30" from="-240860996#0" to="28010527#1"/>
    <trip id="0482" depart="54024.60" from="-28010469#1" to="25794906"/>
    <trip id="0483" depart="54024.90" from="26710689#1" to="-26662454#2"/>
    <trip id="0484" depart="54025.20" from="17097613#1" to="25482062#1"/>
    <trip id="0485" depart="54025.50" from="-24419307#5" to="29019823#1"/>
    <trip id="0486" depart="54025.80" from="27500559" to="25420497#0"/>
    <trip id="0487" depart="54026.10" from="17007727" to="-26427414#3"/>
    <trip id="0488" depart="54026.40" from="25465210#1" to="41937466#1"/>
    <trip id="0489" depart="54026.70" from="-27500563#0" to="25401640#2"/>
    <trip id="0490" depart="54027.00" from="-26513338#4" to="50113244#1"/>
    <trip id="0491" depart="54027.30" from="25734067#8" to="25420512"/>
    <trip id="0492" depart="54027.60" from="24411832#4" to="-26662431#5"/>
    <trip id="0493" depart="54027.90" from="470247604#2" to="23115994#0"/>
    <trip id="0494" depart="54028.20" from="472616521#0" to="27073472#1"/>
    <trip id="0495" depart="54028.50" from="351537508#0" to="-34726693#1"/>
    <trip id="0496" depart="54028.80" from="25635518#0" to="25420525#0"/>
    <trip id="0497" depart="54029.10" from="-24411811#1" to="283037534"/>
    <trip id="0498" depart="54029.40" from="-28010485#0" to="16234894#1"/>
    <trip id="0499" depart="54029.70" from="-156810828#4" to="118535497"/>
    <trip id="04100" depart="54030.00" from="28010469#0" to="-26320290#2"/>
    <trip id="04101" depart="54030.30" from="26513314#1" to="-28010577#0"/>
    <trip id="04102" depart="54030.60" from="25465249#9" to="27760790#4"/>
    <trip id="04103" depart="54030.90" from="-26710691#0" to="-25734074#0"/>
    <trip id="04104" depart="54031.20" from="41937466#3" to="-351537508#2"/>
    <trip id="04105" depart="54031.50" from="27344455" to="-27440455#2"/>
    <trip id="04106" depart="54031.80" from="50113253#1" to="41937452#10"/>
    <trip id="04107" depart="54032.10" from="-26513344#4" to="28010526#3"/>
    <trip id="04108" depart="54032.40" from="-26320277#1" to="28010566#0"/>
    <trip id="04109" depart="54032.70" from="-28010448#0" to="25366413#11"/>
    <trip id="04110" depart="54033.00" from="25401614#3" to="-27720479#1"/>
    <trip id="04111" depart="54033.30" from="-470509527" to="25281498"/>
    <trip id="04112" depart="54033.60" from="27720394#1" to="-25482081#0"/>
    <trip id="04113" depart="54033.90" from="-27440572#3" to="-23111715#0"/>
    <trip id="04114" depart="54034.20" from="-25420521" to="25734074#1"/>
    <trip id="04115" depart="54034.50" from="50113253#1" to="310720097#6"/>
    <trip id="04116" depart="54034.80" from="24801372#0" to="518028890#2"/>
    <trip id="04117" depart="54035.10" from="-112023779" to="-28010570#5"/>
    <trip id="04118" depart="54035.40" from="-16230993#3" to="25355533#6"/>
    <trip id="04119" depart="54035.70" from="247751386#0" to="-28010521"/>
    <trip id="04120" depart="54036.00" from="-41551160#2" to="-25420504#8"/>
    <trip id="04121" depart="54036.30" from="25465233#3" to="26662444#0"/>
    <trip id="04122" depart="54036.60" from="28010584#1" to="28010459"/>
    <trip id="04123" depart="54036.90" from="26320244#0" to="247213979#1"/>
    <trip id="04124" depart="54037.20" from="26320277#1" to="25230359#4"/>
    <trip id="04125" depart="54037.50" from="41937459#2" to="25482106#4"/>
    <trip id="04126" depart="54037.80" from="30793355#2" to="25355533#6"/>
    <trip id="04127" depart="54038.10" from="-26320257#0" to="247208010#2"/>
    <trip id="04128" depart="54038.40" from="351534959#1" to="-247208011#0"/>
    <trip id="04129" depart="54038.70" from="50257921" to="25482083"/>
    <trip id="04130" depart="54039.00" from="25230310#3" to="28010567#3"/>
    <trip id="04131" depart="54039.30" from="-665595729#5" to="-25420541#0"/>
    <trip id="04132" depart="54039.60" from="26320258#0" to="28010498#2"/>
    <trip id="04133" depart="54039.90" from="-586701921#4" to="517326033"/>
    <trip id="04134" depart="54040.20" from="377868532#6" to="27736408#1"/>
    <trip id="04135" depart="54040.50" from="26427414#2" to="-25420525#2"/>
    <trip id="04137" depart="54041.10" from="-25775258#4" to="25775314#1"/>
    <trip id="04138" depart="54041.40" from="29019847#6" to="591743000#2"/>
    <trip id="04139" depart="54041.70" from="24371409" to="25775281#7"/>
    <trip id="04140" depart="54042.00" from="-26662463#0" to="156810744"/>
    <trip id="04141" depart="54042.30" from="26662398#2" to="-25775267#14"/>
    <trip id="04142" depart="54042.60" from="-27500497#2" to="-25734074#11"/>
    <trip id="04143" depart="54042.90" from="778015025#4" to="-27719284#3"/>
    <trip id="04144" depart="54043.20" from="-25775253" to="-157770089#1"/>
    <trip id="04145" depart="54043.50" from="-27440410#2" to="-377868534#1"/>
    <trip id="04146" depart="54043.80" from="-27500561#1" to="-27760798"/>
    <trip id="04147" depart="54044.10" from="-25482057#1" to="24445805#3"/>
    <trip id="04148" depart="54044.40" from="25775267#21" to="27500497#1"/>
    <trip id="04149" depart="54044.70" from="25401628#3" to="-16232121#19"/>
    <trip id="04150" depart="54045.00" from="-16233415#5" to="25401640#5"/>
    <trip id="04151" depart="54045.30" from="25465245#2" to="41152980#2"/>
    <trip id="04152" depart="54045.60" from="-26513280#0" to="-25482106#4"/>
    <trip id="04153" depart="54045.90" from="-25775333#3" to="622435348"/>
    <trip id="04154" depart="54046.20" from="25775281#11" to="-25482068#0"/>
    <trip id="04155" depart="54046.50" from="202761370" to="25313533#0"/>
    <trip id="04156" depart="54046.80" from="-25123910#16" to="-25775282#1"/>
    <trip id="04157" depart="54047.10" from="-17007526#1" to="-23110723"/>
    <trip id="04158" depart="54047.40" from="27718574#2" to="27500568#1"/>
    <trip id="04159" depart="54047.70" from="-25123910#14" to="287205595-AddedOnRampEdge"/>
    <trip id="04160" depart="54048.00" from="-25366432#4" to="23111085#0"/>
    <trip id="04162" depart="54048.60" from="156810843#0" to="-28010502#0"/>
    <trip id="04163" depart="54048.90" from="-24411811#16" to="28010449"/>
    <trip id="04164" depart="54049.20" from="26662417#8" to="28010567#7"/>
    <trip id="04165" depart="54049.50" from="25123907#3" to="25734063#3"/>
    <trip id="04166" depart="54049.80" from="472541435" to="377869587#6"/>
    <trip id="04167" depart="54050.10" from="592054826" to="-379316927"/>
    <trip id="04168" depart="54050.40" from="28010508#4" to="17056546#5"/>
    <trip id="04169" depart="54050.70" from="-27760794#0" to="-379316925#7"/>
    <trip id="04170" depart="54051.00" from="-25734067#2" to="-23111479#1"/>
    <trip id="04171" depart="54051.30" from="517972133#0-AddedOnRampEdge" to="38260988#2-AddedOnRampEdge"/>
    <trip id="04172" depart="54051.60" from="-28010477#2" to="27718578#2"/>
    <trip id="04173" depart="54051.90" from="-25734074#7" to="28010570#5"/>
    <trip id="04174" depart="54052.20" from="-26320254#1" to="17096089#3"/>
    <trip id="04175" depart="54052.50" from="-25465248#1" to="476958265"/>
    <trip id="04176" depart="54052.80" from="-26513347#4" to="587383103#0"/>
    <trip id="04177" depart="54053.10" from="-28010526#4" to="24411825#3"/>
    <trip id="04178" depart="54053.40" from="-28257906#7" to="17055718#5"/>
    <trip id="04179" depart="54053.70" from="25401629#3" to="-17058489#5"/>
    <trip id="04180" depart="54054.00" from="-28257906#10" to="25465212#1"/>
    <trip id="04181" depart="54054.30" from="34609041#5" to="-241501814#7"/>
    <trip id="04182" depart="54054.60" from="25465205#3" to="-25775267#9"/>
    <trip id="04183" depart="54054.90" from="26662467" to="-23236469#6"/>
    <trip id="04185" depart="54055.50" from="-24801349#2" to="613811827#0-AddedOffRampEdge"/>
    <trip id="04186" depart="54055.80" from="-16233040#7" to="658002700"/>
    <trip id="04187" depart="54056.10" from="-25775299#1" to="23115994#0"/>
    <trip id="04188" depart="54056.40" from="-26513295#1" to="-17097959#6"/>
    <trip id="04189" depart="54056.70" from="-28257906#10" to="26513344#3"/>
    <trip id="04191" depart="54057.30" from="470509531" to="25465248#13"/>
    <trip id="04192" depart="54057.60" from="-23111624#0" to="17094318#5"/>
    <trip id="04193" depart="54057.90" from="33658107#0" to="-26427396#5"/>
    <trip id="04194" depart="54058.20" from="351534955#0" to="591816723"/>
    <trip id="04195" depart="54058.50" from="27500585#2" to="351536227"/>
    <trip id="04196" depart="54058.80" from="471778450#2" to="244847757#1"/>
    <trip id="04197" depart="54059.10" from="23111073#2" to="16236580#5"/>
    <trip id="04198" depart="54059.40" from="38260974-AddedOffRampEdge" to="28010503"/>
    <trip id="04199" depart="54059.70" from="-25775362" to="-25734074#1"/>
    <trip id="04200" depart="54060.00" from="-351973620#3" to="-25775304#2"/>
    <trip id="04201" depart="54060.30" from="-23110836#3" to="-28010447#0"/>
    <trip id="04202" depart="54060.60" from="26320255#1" to="25482072#1"/>
    <trip id="04203" depart="54060.90" from="470247606" to="-26513344#0"/>
    <trip id="04204" depart="54061.20" from="470186318#0" to="25154427#3"/>
    <trip id="04205" depart="54061.50" from="-25420549#0" to="-351534957#1"/>
    <trip id="04206" depart="54061.80" from="-28010570#2" to="26662459"/>
    <trip id="04207" depart="54062.10" from="27924747#1" to="25775353#0"/>
    <trip id="04208" depart="54062.40" from="26513338#0" to="-25401629#0"/>
    <trip id="04209" depart="54062.70" from="26427394#3" to="27006738#6"/>
    <trip id="04210" depart="54063.00" from="-27440411#2" to="28010491#2"/>
    <trip id="04211" depart="54063.30" from="-26662424" to="23115994#1"/>
    <trip id="04212" depart="54063.60" from="272969844#2" to="28010529#1"/>
    <trip id="04213" depart="54063.90" from="29043116#0" to="50113244#1"/>
    <trip id="04214" depart="54064.20" from="-26320271#1" to="-156812358#3"/>
    <trip id="04215" depart="54064.50" from="210312613" to="-164512031#2"/>
    <trip id="04216" depart="54064.80" from="484588233#2" to="-379316926#5"/>
    <trip id="04217" depart="54065.10" from="26662417#0" to="-26320273#1"/>
    <trip id="04218" depart="54065.40" from="26513333#5" to="-26320250#1"/>
    <trip id="04219" depart="54065.70" from="27500557#17" to="17056758"/>
    <trip id="04220" depart="54066.00" from="-27500534#1" to="16235971#1"/>
    <trip id="04221" depart="54066.30" from="26710735#1" to="-470509521#0"/>
    <trip id="04222" depart="54066.60" from="518955259#3" to="25154425"/>
    <trip id="04223" depart="54066.90" from="-24445795#2" to="25734063#3"/>
    <trip id="04224" depart="54067.20" from="-26320290#3" to="27369585#5"/>
    <trip id="04225" depart="54067.50" from="351535220" to="17469145#7"/>
    <trip id="04226" depart="54067.80" from="17097959#6" to="-25482081#2"/>
    <trip id="04227" depart="54068.10" from="791811885#3" to="26662421#1"/>
    <trip id="04228" depart="54068.40" from="-28010433#0" to="27073482#5"/>
    <trip id="04229" depart="54068.70" from="25401654#5" to="23111066#8"/>
    <trip id="04230" depart="54069.00" from="17058489#2" to="516209079"/>
    <trip id="04231" depart="54069.30" from="-379316928#1" to="26513335#4"/>
    <trip id="04232" depart="54069.60" from="26662416#0" to="241280576#4"/>
    <trip id="04233" depart="54069.90" from="-25775254#3" to="26513348#0"/>
    <trip id="04234" depart="54070.20" from="-156804370#0" to="27500568#0"/>
    <trip id="04235" depart="54070.50" from="-26662453" to="25734077#3"/>
    <trip id="04236" depart="54070.80" from="-26320243#6" to="-27073221#2"/>
    <trip id="04237" depart="54071.10" from="303161432#2" to="476958262"/>
    <trip id="04238" depart="54071.40" from="17468879#5" to="24445795#1"/>
    <trip id="04240" depart="54072.00" from="-25775254#2" to="26427401#1"/>
    <trip id="04241" depart="54072.30" from="-26513305#3" to="23236825#1"/>
    <trip id="04242" depart="54072.60" from="26662425" to="16966154#5"/>
    <trip id="04243" depart="54072.90" from="28010525#2" to="50275729"/>
    <trip id="04244" depart="54073.20" from="25482068#4" to="24371425#1"/>
    <trip id="04245" depart="54073.50" from="25420557#0" to="27718578#1"/>
    <trip id="04246" depart="54073.80" from="26513333#1" to="26513354#1"/>
    <trip id="04247" depart="54074.10" from="377869587#6" to="27440461#0"/>
    <trip id="04248" depart="54074.40" from="30793592#0" to="50113244#0"/>
    <trip id="04249" depart="54074.70" from="-40284876#1" to="-319507402#1"/>
    <trip id="04250" depart="54075.00" from="-26662452" to="41152981#5"/>
    <trip id="04251" depart="54075.30" from="-17468879#10" to="25401598"/>
    <trip id="04252" depart="54075.60" from="-26320262#0" to="-40303681"/>
    <trip id="04253" depart="54075.90" from="-25775320#0" to="26710689#0"/>
    <trip id="04254" depart="54076.20" from="23110739#6" to="25482098"/>
    <trip id="04255" depart="54076.50" from="-26513278#0" to="-25465248#9"/>
    <trip id="04256" depart="54076.80" from="-25154086#0" to="-25775257#1"/>
    <trip id="04257" depart="54077.10" from="592334651" to="24445795#1"/>
    <trip id="04258" depart="54077.40" from="-41424226#1" to="-272969845"/>
    <trip id="04259" depart="54077.70" from="226025406#2" to="-25281472#0"/>
    <trip id="04260" depart="54078.00" from="319277813#0" to="-27720162#1"/>
    <trip id="04261" depart="54078.30" from="26320261#1" to="300350422#3"/>
    <trip id="04262" depart="54078.60" from="26513286#1" to="156799724#10"/>
    <trip id="04263" depart="54078.90" from="34612477#0" to="41152981#5"/>
    <trip id="04264" depart="54079.20" from="-26513301#0" to="-27073232"/>
    <trip id="04265" depart="54079.50" from="25734065#7" to="28257906#4"/>
    <trip id="04266" depart="54079.80" from="-27500497#1" to="-26662398#2"/>
    <trip id="04267" depart="54080.10" from="-25775296#0" to="-104101429#1"/>
    <trip id="04268" depart="54080.40" from="25465262" to="379316926#4"/>
    <trip id="04269" depart="54080.70" from="-26662395#5" to="26513352#3"/>
    <trip id="04270" depart="54081.00" from="-29043347#2" to="25401626#1"/>
    <trip id="04271" depart="54081.30" from="27500497#0" to="25775292#3"/>
    <trip id="04272" depart="54081.60" from="17096200#4" to="27500492#6"/>
    <trip id="04273" depart="54081.90" from="-26513334#3" to="-23111080#1"/>
    <trip id="04274" depart="54082.20" from="25734058#2" to="665595730#5"/>
    <trip id="04275" depart="54082.50" from="-23111108" to="-29019823#0"/>
    <trip id="04276" depart="54082.80" from="156810841#1" to="-471523588#2"/>
    <trip id="04277" depart="54083.10" from="-25482077#2" to="25775267#22"/>
    <trip id="04278" depart="54083.40" from="17007879#3" to="-25775258#2"/>
    <trip id="04280" depart="54084.00" from="-26662395#7" to="27720004#4"/>
    <trip id="04281" depart="54084.30" from="27073591#0" to="24801349#1"/>
    <trip id="04282" depart="54084.60" from="27736408#8" to="-25734077#5"/>
    <trip id="04283" depart="54084.90" from="26513282" to="28257906#4"/>
    <trip id="04284" depart="54085.20" from="25281472#0" to="25401635#3"/>
    <trip id="04285" depart="54085.50" from="518955256" to="-28010486#2"/>
    <trip id="04286" depart="54085.80" from="-351538206#4" to="-26710730#2"/>
    <trip id="04287" depart="54086.10" from="-332419555#2" to="470509521#0"/>
    <trip id="04288" depart="54086.40" from="26320272#1" to="-26513313#1"/>
    <trip id="04289" depart="54086.70" from="243980239#3" to="-470247601#1"/>
    <trip id="04290" depart="54087.00" from="-25775277#0" to="-471778448#0"/>
    <trip id="04291" depart="54087.30" from="392659954#3" to="25734074#6"/>
    <trip id="04292" depart="54087.60" from="-27720004#1" to="-25420550#8"/>
    <trip id="04293" depart="54087.90" from="303161435#1" to="27500577#1"/>
    <trip id="04294" depart="54088.20" from="25734067#1" to="25123913#0"/>
    <trip id="04295" depart="54088.50" from="17061184#9" to="-27500557#14"/>
    <trip id="04296" depart="54088.80" from="471778454#1" to="24411825#9"/>
    <trip id="04297" depart="54089.10" from="-25775330#1" to="17006968"/>
    <trip id="04298" depart="54089.40" from="25401621#3" to="27500557#8"/>
    <trip id="04299" depart="54089.70" from="318885149#6" to="-25465204#1"/>
    <trip id="04300" depart="54090.00" from="665595730#2" to="283052784"/>
    <trip id="04301" depart="54090.30" from="-303161435#3" to="-26662398#0"/>
    <trip id="04302" depart="54090.60" from="227220003#1" to="217914480"/>
    <trip id="04303" depart="54090.90" from="-25635518#1" to="24411825#9"/>
    <trip id="04304" depart="54091.20" from="470530195#3" to="27500567#0"/>
    <trip id="04305" depart="54091.50" from="27718572#0" to="-25775284"/>
    <trip id="04306" depart="54091.80" from="-470509518" to="41937464"/>
    <trip id="04307" depart="54092.10" from="283052784" to="-26662431#5"/>
    <trip id="04308" depart="54092.40" from="-41937452#8" to="-23110739#2"/>
    <trip id="04309" depart="54092.70" from="25482082" to="25123902#1"/>
    <trip id="04310" depart="54093.00" from="25287058#1-AddedOffRampEdge" to="227245225#0"/>
    <trip id="04311" depart="54093.30" from="16966154#4" to="29043347#1"/>
    <trip id="04312" depart="54093.60" from="159767072" to="-25775294#1"/>
    <trip id="04313" depart="54093.90" from="25775289#0" to="27500492#8"/>
    <trip id="04314" depart="54094.20" from="-665595730#1" to="25465196#2"/>
    <trip id="04315" depart="54094.50" from="-25482085" to="17007350#0"/>
    <trip id="04316" depart="54094.80" from="104101429#0" to="377869587#5"/>
    <trip id="04317" depart="54095.10" from="-26662409#1" to="-25775267#17"/>
    <trip id="04318" depart="54095.40" from="-24801361#1" to="-26320290#3"/>
    <trip id="04319" depart="54095.70" from="41556548#0" to="28257906#6"/>
    <trip id="04320" depart="54096.00" from="25775283#1" to="41424226#3"/>
    <trip id="04321" depart="54096.30" from="-26320268#0" to="-392330107#2"/>
    <trip id="04322" depart="54096.60" from="-355858458#4" to="470247618#1"/>
    <trip id="04323" depart="54096.90" from="-26710735#0" to="-420861219#2"/>
    <trip id="04324" depart="54097.20" from="-319507402#1" to="221134596#0"/>
    <trip id="04325" depart="54097.50" from="-26513314#2" to="26662395#5"/>
    <trip id="04326" depart="54097.80" from="16243987#1" to="25154427#3"/>
    <trip id="04327" depart="54098.10" from="25775267#21" to="25775304#1"/>
    <trip id="04328" depart="54098.40" from="-26320250#0" to="25420550#8"/>
    <trip id="04330" depart="54099.00" from="-28010493#3" to="26710731#3"/>
    <trip id="04331" depart="54099.30" from="157770087#0" to="-16235199#1"/>
    <trip id="04332" depart="54099.60" from="25401651#2" to="28257919#7"/>
    <trip id="04333" depart="54099.90" from="25401638#6" to="-749686558#4"/>
    <trip id="04334" depart="54100.20" from="392330107#2" to="25775318#1"/>
    <trip id="04335" depart="54100.50" from="665595730#1" to="-25465262"/>
    <trip id="04336" depart="54100.80" from="26427400#1" to="26662436#0"/>
    <trip id="04337" depart="54101.10" from="17056376#2" to="-25734071#0"/>
    <trip id="04338" depart="54101.40" from="778015025#0" to="-50275728#3"/>
    <trip id="04339" depart="54101.70" from="34608618" to="-17055393#1"/>
    <trip id="04340" depart="54102.00" from="-25482107#1" to="38259236#1"/>
    <trip id="04341" depart="54102.30" from="25366404-AddedOffRampEdge" to="24444098#7"/>
    <trip id="04342" depart="54102.60" from="-471778445#2" to="-27500559"/>
    <trip id="04343" depart="54102.90" from="26513305#7" to="-26513335#0"/>
    <trip id="04344" depart="54103.20" from="23111651#0" to="25366411"/>
    <trip id="04345" depart="54103.50" from="24411814#5" to="17094536#1"/>
    <trip id="04346" depart="54103.80" from="-17469145#4" to="470509533#5"/>
    <trip id="04347" depart="54104.10" from="586701936#0" to="16232121#20"/>
    <trip id="04348" depart="54104.40" from="25775351#0" to="392529596"/>
    <trip id="04349" depart="54104.70" from="25734077#0" to="193226314#0"/>
    <trip id="04350" depart="54105.00" from="27720390#8" to="17469145#8"/>
    <trip id="04351" depart="54105.30" from="16232241#5" to="26662466#2"/>
    <trip id="04352" depart="54105.60" from="25734067#6" to="23111076#0"/>
    <trip id="04353" depart="54105.90" from="25420499#4" to="28010525#3"/>
    <trip id="04354" depart="54106.20" from="471523532#1" to="25230353#2"/>
    <trip id="04355" depart="54106.50" from="26320279#0" to="17095380#1"/>
    <trip id="04356" depart="54106.80" from="-303161435#2" to="591766587#1"/>
    <trip id="04357" depart="54107.10" from="-25775351#1" to="16243987#0"/>
    <trip id="04358" depart="54107.40" from="-27719284#1" to="40301054#1"/>
    <trip id="04359" depart="54107.70" from="-28010498#8" to="25775350"/>
    <trip id="04360" depart="54108.00" from="28010498#9" to="16224701#6"/>
    <trip id="04361" depart="54108.30" from="17461769#0" to="28010582#5"/>
    <trip id="04362" depart="54108.60" from="27073221#0" to="26513323#4"/>
    <trip id="04363" depart="54108.90" from="-27760790#2" to="292979149#1-AddedOnRampEdge"/>
    <trip id="04364" depart="54109.20" from="25401626#3" to="-26662431#5"/>
    <trip id="04365" depart="54109.50" from="25420535#4" to="25775335#2"/>
    <trip id="04366" depart="54109.80" from="-351536620" to="25420550#9"/>
    <trip id="04367" depart="54110.10" from="25154100#1" to="-355858458#4"/>
    <trip id="04368" depart="54110.40" from="25775265#1" to="-26662452"/>
    <trip id="04369" depart="54110.70" from="23115994#1" to="-25734077#7"/>
    <trip id="04371" depart="54111.30" from="470247604#4" to="28010570#0"/>
    <trip id="04372" depart="54111.60" from="-24411813#0" to="-25482112#2"/>
    <trip id="04373" depart="54111.90" from="-104613682#3" to="25401644#0"/>
    <trip id="04374" depart="54112.20" from="-25775265#1" to="392653545#1"/>
    <trip id="04375" depart="54112.50" from="470247644" to="34612501#1"/>
    <trip id="04376" depart="54112.80" from="16232090#4" to="-27440573#0"/>
    <trip id="04377" depart="54113.10" from="517932039" to="-16233070#3"/>
    <trip id="04378" depart="54113.40" from="472541422" to="26320260#3"/>
    <trip id="04379" depart="54113.70" from="-24411814#14" to="-105760885#0"/>
    <trip id="04380" depart="54114.00" from="25290968#3" to="150555043#2"/>
    <trip id="04381" depart="54114.30" from="-16243938#3" to="25775320#0"/>
    <trip id="04382" depart="54114.60" from="28010435#2" to="29043116#4-AddedOffRampEdge"/>
    <trip id="04383" depart="54114.90" from="25420496#1" to="-379316923#3"/>
    <trip id="04384" depart="54115.20" from="-24411832#5" to="247208012#2"/>
    <trip id="04385" depart="54115.50" from="24411821#1" to="25482072#1"/>
    <trip id="04386" depart="54115.80" from="-25482068#0" to="-26320250#0"/>
    <trip id="04388" depart="54116.40" from="41937494#0" to="25465226#0"/>
    <trip id="04389" depart="54116.70" from="25734077#2" to="16236020#0"/>
    <trip id="04390" depart="54117.00" from="-156810944#2" to="24411832#3"/>
    <trip id="04391" depart="54117.30" from="26662417#6" to="472541447"/>
    <trip id="04392" depart="54117.60" from="-337192923#1" to="-25775267#2"/>
    <trip id="04393" depart="54117.90" from="26513341#0" to="-25281468#6"/>
    <trip id="04394" depart="54118.20" from="27720251#6" to="-25465192"/>